%%%%%%%%%%%%%%%%%%%%%%%%%%%%%%%%%%%%%%%%%%%%%%%%%%%%%%%%%%%%%%%%%%%%%%%%%%%%%%%%
%                                                                              %
% SU2 configuration file                                                       %
% Case description: Laminar premixed flame with isothermal heat exchanger      %
% Author: Daniel Mayer                                                         %
% Institution: Robert Bosch LLC                                                %
% Date: 08/07/2019                                                             %
% File Version 6.2.0 "Falcon", branch: feature_flamelet                        %
%                                                                              %
%%%%%%%%%%%%%%%%%%%%%%%%%%%%%%%%%%%%%%%%%%%%%%%%%%%%%%%%%%%%%%%%%%%%%%%%%%%%%%%%

% ------------- DIRECT, ADJOINT, AND LINEARIZED PROBLEM DEFINITION ------------%
%
% Physical governing equations (EULER, NAVIER_STOKES,
%                               WAVE_EQUATION, HEAT_EQUATION, FEM_ELASTICITY,
%                               POISSON_EQUATION)

SOLVER = INC_NAVIER_STOKES

% Specify turbulent model (NONE, SA, SA_NEG, SST)
KIND_TURB_MODEL= NONE

% Mathematical problem (DIRECT, CONTINUOUS_ADJOINT, DISCRETE_ADJOINT)
%MATH_PROBLEM= DIRECT
MATH_PROBLEM= DISCRETE_ADJOINT

% Restart solution (NO, YES)
RESTART_SOL = NO



%
% ---------------- INCOMPRESSIBLE FLOW CONDITION DEFINITION -------------------%
%
% Density model within the incompressible flow solver.
% Options are CONSTANT (default), BOUSSINESQ, or VARIABLE. If VARIABLE,
% an appropriate fluid model must be selected.

INC_DENSITY_MODEL= VARIABLE

% Solve the energy equation in the incompressible flow solver
INC_ENERGY_EQUATION = YES


% Initial density for incompressible flows
% (1.2886 kg/m^3 by default (air), 998.2 Kg/m^3 (water))
INC_DENSITY_INIT= 1.1728

% Initial velocity for incompressible flows (1.0,0,0 m/s by default)
INC_VELOCITY_INIT= (0.1, 0.0, 0.0 )


% Initial temperature for incompressible flows that include the 
% energy equation (288.15 K by default). Value is ignored if 
% INC_ENERGY_EQUATION is false.
INC_TEMPERATURE_INIT= 300.0

% Non-dimensionalization scheme for incompressible flows. Options are
% INITIAL_VALUES (default), REFERENCE_VALUES, or DIMENSIONAL.
% INC_*_REF values are ignored unless REFERENCE_VALUES is chosen.
INC_NONDIM= DIMENSIONAL

%
% -------------------- COMPRESSIBLE FREE-STREAM DEFINITION --------------------%
%
% Mach number (non-dimensional, based on the free-stream values)
MACH_NUMBER= 0.01

% Angle of attack (degrees, only for compressible flows)
AOA= 0.0

% Free-stream temperature (288.15 K by default)
FREESTREAM_TEMPERATURE = 300.0

% Free-stream pressure
FREESTREAM_PRESSURE = 101325.0 

% Free-stream density
FREESTREAM_DENSITY = 1.1768

FREESTREAM_VELOCITY = (0.0, 0.0, 0.0)

% Reynolds number (non-dimensional, based on the free-stream values)
REYNOLDS_NUMBER= 290000.0

% Reynolds length (1 m by default)
REYNOLDS_LENGTH= 1.0

% -------------------- FLUID MODEL --------------------------------------- %

FLUID_MODEL= FLAMELET_FLUID_MODEL

%FILENAME_LUT = chem_table_hep_converted_500x600.drg
FILENAME_LUT = chem_table_hep_converted_500x600_hull.drg

% The FLAMELET_THERMO_SYSTEM flag is a bit messed up at this point.
% Just leave it on ADIABATIC which will actually enable heat loss.
% Yes, that is confusing. I know.
%FLAMELET_THERMO_SYSTEM = HEAT_LOSS

FLAMELET_THERMO_SYSTEM = ADIABATIC

FLAME_OFFSET = 0.0035

FLAME_THICKNESS = 0.2e-3

BURNT_THICKNESS = 1

% --------------------------- THERMAL CONDUCTIVITY MODEL ----------------------%

% Laminar Conductivity model (CONSTANT_CONDUCTIVITY, CONSTANT_PRANDTL, 
% POLYNOMIAL_CONDUCTIVITY).
%CONDUCTIVITY_MODEL= CONSTANT_PRANDTL

% Molecular Thermal Conductivity that would be constant (0.0257 by default)
%KT_CONSTANT= 0.0257

% Laminar Prandtl number (0.72 (air), only for CONSTANT_PRANDTL)
%PRANDTL_LAM= 0.72

% Temperature polynomial coefficients (up to quartic) for conductivity.
% Format -> Kt(T) : b0 + b1*T + b2*T^2 + b3*T^3 + b4*T^4
%KT_POLYCOEFFS= (0.0, 0.0, 0.0, 0.0, 0.0)

% Definition of the turbulent thermal conductivity model for RANS
% (CONSTANT_PRANDTL_TURB by default, NONE).
%TURBULENT_CONDUCTIVITY_MODEL= CONSTANT_PRANDTL_TURB

% Turbulent Prandtl number (0.9 (air) by default)
%PRANDTL_TURB= 0.90

% -------------------- SCALAR TRANSPORT ---------------------------------------%

SCALAR_INIT = (0, -193880, 0, 0, 0, 0)

CONV_NUM_METHOD_SCALAR= SCALAR_UPWIND

MUSCL_SCALAR= YES

SLOPE_LIMITER_SCALAR = NONE

TIME_DISCRE_SCALAR= EULER_IMPLICIT

% SCALAR CLIPPING

SCALAR_CLIPPING= YES

SCALAR_CLIPPING_MIN= 0 -3554460 0 0 0 0

SCALAR_CLIPPING_MAX= 0.30938 3017660 1 1 1 1

% --------------------------- VISCOSITY MODEL ---------------------------------%

% Viscosity model (SUTHERLAND, CONSTANT_VISCOSITY).
VISCOSITY_MODEL= SUTHERLAND

% Molecular Viscosity that would be constant (1.716E-5 by default)
MU_CONSTANT= 1.716E-5

% Sutherland Viscosity Ref (1.716E-5 default value for AIR SI)
MU_REF= 1.716E-5

% Sutherland Temperature Ref (273.15 K default value for AIR SI)
MU_T_REF= 273.15

% Sutherland constant (110.4 default value for AIR SI)
SUTHERLAND_CONSTANT= 110.4

% ---------------------- REFERENCE VALUE DEFINITION ---------------------------%

% Reference origin for moment computation
REF_ORIGIN_MOMENT_X = 0.25
REF_ORIGIN_MOMENT_Y = 0.00
REF_ORIGIN_MOMENT_Z = 0.00

% Reference length for pitching, rolling, and yawing non-dimensional moment
REF_LENGTH= 1.0

% Reference area for force coefficients (0 implies automatic calculation)
REF_AREA= 0.0

% -------------------- BOUNDARY CONDITION DEFINITION --------------------------%

% Navier-Stokes wall boundary marker(s) (NONE = no marker)

%MARKER_HEATFLUX = (wall_burner, 0.)

MARKER_ANALYZE = (outlet)

MARKER_ANALYZE_AVERAGE = AREA

MARKER_ISOTHERMAL= (wall_burner, 450,  wall_probe, 400)

%SPECIFIED_INLET_PROFILE= NO

%INLET_FILENAME = inlet_bc.dat

INLET_MATCHING_TOLERANCE= 1e-5

INC_INLET_TYPE= VELOCITY_INLET

% Inlet boundary type 
%INLET_TYPE= TOTAL_CONDITIONS

% Inlet boundary marker(s)
MARKER_INLET = (inlet, 300.0, 0.5, 1.0, 0.0, 0.0)

MARKER_INLET_SCALAR = (inlet, 0, 0, 0, 0, 0, 0)

INC_OUTLET_TYPE= PRESSURE_OUTLET

MARKER_OUTLET = (outlet, 0.0)

% Symmetry boundary marker
MARKER_EULER = (symmetry_ym, symmetry_yp)

% Farfield boundary marker(s) (NONE = no marker)
%MARKER_FAR= (outlet)

% Marker(s) of the surface to be plotted or designed
%MARKER_PLOTTING= ( cylinder )

% Marker(s) of the surface where the functional (Cd, Cl, etc.) will be evaluated
MARKER_MONITORING= ( outlet )

% ------------- COMMON PARAMETERS DEFINING THE NUMERICAL METHOD ---------------%

% Numerical method for spatial gradients (GREEN_GAUSS, WEIGHTED_LEAST_SQUARES)
NUM_METHOD_GRAD= GREEN_GAUSS

% Courant-Friedrichs-Lewy condition of the finest grid

CFL_NUMBER=400

CFL_REDUCTION_SCALAR= 1

%RELAXATION_FACTOR_FLOW=1
RELAXATION_FACTOR_SCALAR=1

% Adaptive CFL number (NO, YES)
CFL_ADAPT = NO

% Parameters of the adaptive CFL number (factor down, factor up, CFL min value,
%                                        CFL max value )
CFL_ADAPT_PARAM = ( 1.5, 0.5, 1.0, 100.0 )


% Runge-Kutta alpha coefficients
RK_ALPHA_COEFF = ( 0.66667, 0.66667, 1.000000 )

% Number of total iterations
%ITER = 15000
ITER = 25

% ------------------------ LINEAR SOLVER DEFINITION ---------------------------%

% Linear solver for implicit formulations (BCGSTAB, FGMRES)
LINEAR_SOLVER= FGMRES

% Preconditioner of the Krylov linear solver (JACOBI, LINELET, LU_SGS)
LINEAR_SOLVER_PREC= ILU

% Minimum error of the linear solver for implicit formulations
LINEAR_SOLVER_ERROR= 1E-5

% Max number of iterations of the linear solver for the implicit formulation
LINEAR_SOLVER_ITER= 20

% -------------------------- MULTIGRID PARAMETERS -----------------------------%

% Multi-Grid Levels (0 = no multi-grid)
MGLEVEL= 0

% Multi-grid cycle (V_CYCLE, W_CYCLE, FULLMG_CYCLE)
MGCYCLE= V_CYCLE

% Multi-grid pre-smoothing level
MG_PRE_SMOOTH= ( 1, 2, 3, 3 )

% Multi-grid post-smoothing level
MG_POST_SMOOTH= ( 0, 0, 0, 0 )

% Jacobi implicit smoothing of the correction
MG_CORRECTION_SMOOTH= ( 0, 0, 0, 0 )

% Damping factor for the residual restriction
MG_DAMP_RESTRICTION= 0.8

% Damping factor for the correction prolongation
MG_DAMP_PROLONGATION= 0.8

% -------------------- FLOW NUMERICAL METHOD DEFINITION -----------------------%

% Convective numerical method (JST, LAX-FRIEDRICH, CUSP, ROE, AUSM, HLLC,
%                              TURKEL_PREC, MSW)
CONV_NUM_METHOD_FLOW= FDS

% Monotonic Upwind Scheme for Conservation Laws (TVD) in the flow equations.
%           Required for 2nd order upwind schemes (NO, YES)
MUSCL_FLOW= YES

% Slope limiter (VENKATAKRISHNAN, MINMOD)
SLOPE_LIMITER_FLOW = NONE

% Coefficient for the limiter (smooth regions)
VENKAT_LIMITER_COEFF= 10.0

% 2nd and 4th order artificial dissipation coefficients
JST_SENSOR_COEFF= ( 0.5, 0.02 )

% Time discretization (RUNGE-KUTTA_EXPLICIT, EULER_IMPLICIT, EULER_EXPLICIT)
TIME_DISCRE_FLOW= EULER_IMPLICIT

% LOW MACH SOLVER
%LOW_MACH_CORR = YES
% --------------------------- CONVERGENCE PARAMETERS --------------------------%

% Convergence criteria (CAUCHY, RESIDUAL)
CONV_CRITERIA= RESIDUAL
%
% Min value of the residual (log10 of the residual)

CONV_RESIDUAL_MINVAL= -32

% Start convergence criteria at iteration number
CONV_STARTITER= 10

% Number of elements to apply the criteria
CONV_CAUCHY_ELEMS= 100

% Epsilon to control the series convergence
CONV_CAUCHY_EPS= 1E-6

SCREEN_OUTPUT = INNER_ITER WALL_TIME RMS_PRESSURE RMS_PROGRESS_VARIABLE RMS_ENTHALPY RMS_CO_RS RMS_NO_RS

HISTORY_OUTPUT = RMS_RES AERO_COEFF FLOW_COEFF FLOW_COEFF_SURF

VOLUME_OUTPUT = SOLUTION PRIMITIVE SOURCE RESIDUAL SENSITIVITY

%FLAMELET_TABLE_OUTPUT = Conductivity ViscosityDyn Diffusivity Density

%CONV_FIELD = RMS_CO_RS

% Function to apply the criteria (LIFT, DRAG, NEARFIELD_PRESS, SENS_GEOMETRY, 
% 	      	    		 SENS_MACH, DELTA_LIFT, DELTA_DRAG)

% ------------------------- INPUT/OUTPUT INFORMATION --------------------------%

% Mesh input file



% Mesh input file format (SU2, CGNS, NETCDF_ASCII)
MESH_FORMAT= SU2

% Restart flow input file
SOLUTION_FILENAME= solution_flow.dat

% Restart adjoint input file
SOLUTION_ADJ_FILENAME= solution_adj.dat

% Output file format (PARAVIEW, PARAVIEW_BINARY, TECPLOT, STL)
OUTPUT_FILES = (RESTART, PARAVIEW, SURFACE_PARAVIEW) 
TABULAR_FORMAT = CSV

% Output file convergence history (w/o extension) 
CONV_FILENAME= history

% Output file restart flow
RESTART_FILENAME= restart_flow.dat

% Output file restart adjoint
RESTART_ADJ_FILENAME= restart_adj.dat

% Output file flow (w/o extension) variables
VOLUME_FILENAME= flow

% Output file adjoint (w/o extension) variables
VOLUME_ADJ_FILENAME= adjoint

% Output objective function gradient (using continuous adjoint)
GRAD_OBJFUNC_FILENAME= of_grad.dat

% Reported during primal solution
%OBJECTIVE_FUNCTION= AVG_CO, AVG_NO
%OBJECTIVE_WEIGHT= 1.0, 1000

%OBJECTIVE_FUNCTION= AVG_CO

%OBJECTIVE_FUNCTION = DRAG

% Output file surface flow coefficient (w/o extension)
SURFACE_FILENAME= surface

% Output file surface adjoint coefficient (w/o extension)
SURFACE_ADJ_FILENAME= surface_adjoint

% Writing solution file frequency
OUTPUT_WRT_FREQ=200

WRT_RESIDUALS = YES

WRT_PERFORMANCE = YES

% Writing convergence history frequency
WRT_CON_FREQ= 1

% ----------------------- DESIGN VARIABLE PARAMETERS --------------------------%
%
% Kind of deformation (NO_DEFORMATION, TRANSLATION, ROTATION, SCALE,
%                      FFD_SETTING, FFD_NACELLE
%                      FFD_CONTROL_POINT, FFD_CAMBER, FFD_THICKNESS, FFD_TWIST
%                      FFD_CONTROL_POINT_2D, FFD_CAMBER_2D, FFD_THICKNESS_2D, FFD_TWIST_2D,
%                      HICKS_HENNE, SURFACE_BUMP)
%


%DV_KIND= FFD_SETTING
%MESH_FILENAME = asym_probe_var_03_it_01_unstruct_84k.su2

DV_KIND= FFD_CONTROL_POINT_2D
MESH_FILENAME = asym_probe_var_03_it_01_unstruct_84k_ffd.su2

% Mesh output file
MESH_OUT_FILENAME= asym_probe_var_03_it_01_unstruct_84k_ffd.su2

%
% Marker of the surface in which we are going apply the shape deformation
DV_MARKER= ( wall_probe )
%
% Parameters of the shape deformation
% - NO_DEFORMATION ( 1.0 )
% - TRANSLATION ( x_Disp, y_Disp, z_Disp ), as a unit vector
% - ROTATION ( x_Orig, y_Orig, z_Orig, x_End, y_End, z_End )
% - SCALE ( 1.0 )
% - ANGLE_OF_ATTACK ( 1.0 )
% - FFD_SETTING ( 1.0 )
% - FFD_CONTROL_POINT ( FFD_BoxTag, i_Ind, j_Ind, k_Ind, x_Disp, y_Disp, z_Disp )
% - FFD_NACELLE ( FFD_BoxTag, rho_Ind, theta_Ind, phi_Ind, rho_Disp, phi_Disp )
% - FFD_GULL ( FFD_BoxTag, j_Ind )
% - FFD_ANGLE_OF_ATTACK ( FFD_BoxTag, 1.0 )
% - FFD_CAMBER ( FFD_BoxTag, i_Ind, j_Ind )
% - FFD_THICKNESS ( FFD_BoxTag, i_Ind, j_Ind )
% - FFD_TWIST ( FFD_BoxTag, j_Ind, x_Orig, y_Orig, z_Orig, x_End, y_End, z_End )
% - FFD_CONTROL_POINT_2D ( FFD_BoxTag, i_Ind, j_Ind, x_Disp, y_Disp )
% - FFD_CAMBER_2D ( FFD_BoxTag, i_Ind )
% - FFD_THICKNESS_2D ( FFD_BoxTag, i_Ind )
% - FFD_TWIST_2D ( FFD_BoxTag, x_Orig, y_Orig )
% - HICKS_HENNE ( Lower Surface (0)/Upper Surface (1)/Only one Surface (2), x_Loc )
% - SURFACE_BUMP ( x_Start, x_End, x_Loc )

DV_PARAM= ( FF_BOX, 1, 1, 0.0, 1.0 )

%
% Value of the shape deformation
DV_VALUE= 0.0

% ------------------------ GRID DEFORMATION PARAMETERS ------------------------%
%
% Linear solver or smoother for implicit formulations (FGMRES, RESTARTED_FGMRES, BCGSTAB)
DEFORM_LINEAR_SOLVER= FGMRES
%
% Number of smoothing iterations for mesh deformation
%DEFORM_LINEAR_ITER= 1000
%
% Number of nonlinear deformation iterations (surface deformation increments)
DEFORM_NONLINEAR_ITER= 1
%
% Print the residuals during mesh deformation to the console (YES, NO)
DEFORM_CONSOLE_OUTPUT= YES
%
% Factor to multiply smallest cell volume for deform tolerance (0.001 default)
% DEFORM_TOL_FACTOR = 1e-10
DEFORM_LINEAR_SOLVER_ERROR = 1e-15
%
% Type of element stiffness imposed for FEA mesh deformation (INVERSE_VOLUME,
%                                          WALL_DISTANCE, CONSTANT_STIFFNESS)
DEFORM_STIFFNESS_TYPE= WALL_DISTANCE
%DEFORM_STIFFNESS_TYPE= INVERSE_VOLUME
%
% Visualize the surface deformation (NO, YES)
VISUALIZE_SURFACE_DEF= YES
%
% Visualize the volume deformation (NO, YES)
VISUALIZE_VOLUME_DEF= YES


% -------------------- FREE-FORM DEFORMATION PARAMETERS -----------------------%
%
% Tolerance of the Free-Form Deformation point inversion
FFD_TOLERANCE= 1E-10
%
% Maximum number of iterations in the Free-Form Deformation point inversion
FFD_ITERATIONS= 1000
%
% FFD box definition: 3D case (FFD_BoxTag, X1, Y1, Z1, X2, Y2, Z2, X3, Y3, Z3, X4, Y4, Z4,
%                              X5, Y5, Z5, X6, Y6, Z6, X7, Y7, Z7, X8, Y8, Z8)
%                     2D case (FFD_BoxTag, X1, Y1, 0.0, X2, Y2, 0.0, X3, Y3, 0.0, X4, Y4, 0.0,
%                              0.0, 0.0, 0.0, 0.0, 0.0, 0.0, 0.0, 0.0, 0.0, 0.0, 0.0, 0.0)



FFD_DEFINITION= (BOX_CENTER, 0.0089, 0.0006, 0.0,   0.018, 0.0006, 0.0,   0.018, 0.0018, 0.0,   0.0089, 0.0018, 0.0,   0.0, 0.0, 0.0, 0.0, 0.0, 0.0, 0.0, 0.0, 0.0, 0.0, 0.0, 0.0)



%
% FFD box degree: 3D case (x_degree, y_degree, z_degree)
%                 2D case (x_degree, y_degree, 0)
FFD_DEGREE= ( 16, 1, 0)
%
% Surface continuity at the intersection with the FFD (1ST_DERIVATIVE, 2ND_DERIVATIVE)
%FFD_CONTINUITY= 2ND_DERIVATIVE
FFD_CONTINUITY= 1ST_DERIVATIVE

% Definition of the FFD planes to be frozen in the FFD (x,y,z).
% Value from 0 FFD degree in that direction. Pick a value larger than degree if you do not want to fix any plane.
FFD_FIX_I= (100)
FFD_FIX_J= (100)




% --------------------- OPTIMAL SHAPE DESIGN DEFINITION -----------------------%
%
% Available flow based objective functions or constraint functions
%    DRAG, LIFT, SIDEFORCE, EFFICIENCY,
%    FORCE_X, FORCE_Y, FORCE_Z,
%    MOMENT_X, MOMENT_Y, MOMENT_Z,
%    THRUST, TORQUE, FIGURE_OF_MERIT,
%    EQUIVALENT_AREA, NEARFIELD_PRESSURE,
%    TOTAL_HEATFLUX, MAXIMUM_HEATFLUX,
%    INVERSE_DESIGN_PRESSURE, INVERSE_DESIGN_HEATFLUX,
%    SURFACE_TOTAL_PRESSURE, SURFACE_MASSFLOW
%    SURFACE_STATIC_PRESSURE, SURFACE_MACH
%
% Available geometrical based objective functions or constraint functions
%    AIRFOIL_AREA, AIRFOIL_THICKNESS, AIRFOIL_CHORD, AIRFOIL_TOC, AIRFOIL_AOA,
%    WING_VOLUME, WING_MIN_THICKNESS, WING_MAX_THICKNESS, WING_MAX_CHORD, WING_MIN_TOC, WING_MAX_TWIST, WING_MAX_CURVATURE, WING_MAX_DIHEDRAL
%    STATION#_WIDTH, STATION#_AREA, STATION#_THICKNESS, STATION#_CHORD, STATION#_TOC,
%    STATION#_TWIST (where # is the index of the station defined in GEO_LOCATION_STATIONS)
%
% 2D Design variables
%    HICKS_HENNE              (   1, Scale | Mark. List | Lower(0)/Upper(1) side, x_Loc )
%    FFD_CONTROL_POINT_2D (  15, Scale | Mark. List | FFD_BoxTag, i_Ind, j_Ind, x_Mov, y_Mov )
%    FFD_CAMBER_2D            (  16, Scale | Mark. List | FFD_BoxTag, i_Ind )
%    FFD_THICKNESS_2D     (  17, Scale | Mark. List | FFD_BoxTag, i_Ind )
%    FFD_TWIST_2D         (  20, Scale | Mark. List | FFD_BoxTag, x_Orig, y_Orig )
%    ANGLE_OF_ATTACK      ( 101, Scale | Mark. List | 1.0 )
%
% 3D Design variables
%    FFD_CONTROL_POINT   (   7, Scale | Mark. List | FFD_BoxTag, i_Ind, j_Ind, k_Ind, x_Mov, y_Mov, z_Mov )
%    FFD_NACELLE         (  22, Scale | Mark. List | FFD_BoxTag, rho_Ind, theta_Ind, phi_Ind, rho_Mov, phi_Mov )
%    FFD_GULL            (  23, Scale | Mark. List | FFD_BoxTag, j_Ind )
%    FFD_CAMBER          (  11, Scale | Mark. List | FFD_BoxTag, i_Ind, j_Ind )
%    FFD_THICKNESS           (  12, Scale | Mark. List | FFD_BoxTag, i_Ind, j_Ind )
%    FFD_TWIST               (  19, Scale | Mark. List | FFD_BoxTag, j_Ind, x_Orig, y_Orig, z_Orig, x_End, y_End, z_End )
%    FFD_ROTATION            (  25, Scale | Mark. List | FFD_BoxTag, x_Axis, y_Axis, z_Axis, x_Turn, y_Turn, z_Turn )
%    FFD_ANGLE_OF_ATTACK ( 102, Scale | Mark. List | FFD_BoxTag, 1.0 )
%
% Global design variables
%    TRANSLATION  ( 5, Scale | Mark. List | x_Disp, y_Disp, z_Disp )
%    ROTATION     ( 6, Scale | Mark. List | x_Axis, y_Axis, z_Axis, x_Turn, y_Turn, z_Turn )
%
% Definition of multipoint design problems, this option should be combined with the
% the prefix MULTIPOINT in the objective function or constraint (e.g. MULTIPOINT_DRAG, MULTIPOINT_LIFT, etc.)
MULTIPOINT_MACH_NUMBER= (0.79, 0.8, 0.81)
MULTIPOINT_AOA= (1.25, 1.25, 1.25)
MULTIPOINT_SIDESLIP_ANGLE= (0.0, 0.0, 0.0)
MULTIPOINT_TARGET_CL= (0.8, 0.8, 0.8)
MULTIPOINT_REYNOLDS_NUMBER= (1E6, 1E6, 1E6)
MULTIPOINT_FREESTREAM_PRESSURE= (101325.0, 101325.0, 101325.0)
MULTIPOINT_FREESTREAM_TEMPERATURE= (288.15, 288.15, 288.15)
MULTIPOINT_WEIGHT= (0.33333, 0.33333, 0.33333)
%
% Optimization objective function with scaling factor, separated by semicolons.
% To include quadratic penalty function: use OPT_CONSTRAINT option syntax within the OPT_OBJECTIVE list.
% ex= Objective * Scale

% Objective for adjoint
OPT_OBJECTIVE= AVG_CO * 5.0e-5; AVG_NO * 5.0e-2

OPT_COMBINE_OBJECTIVE = NO

%
% Optimization constraint functions with pushing factors (affects its value, not the gradient  in the python scripts), separated by semicolons
% ex= (Objective = Value ) * Scale, use '>','<','='
%OPT_CONSTRAINT= ( DRAG < 1.68 ) * 1.0; ( AIRFOIL_CHORD < 1.01 ) * 1.0
%OPT_CONSTRAINT= ( AIRFOIL_CHORD < 1.01 ) * 1.0; ( AIRFOIL_AREA > 0.785422 ) * 1.0
%OPT_CONSTRAINT= ( AIRFOIL_CHORD < 1.01 ) * 1.0; ( AIRFOIL_THICKNESS > 0.12 ) * 1.0
%OPT_CONSTRAINT= ( AIRFOIL_THICKNESS > 0.12 ) * 1e-1
%OPT_CONSTRAINT= ( AIRFOIL_THICKNESS > 1.0 ) * 1e-1
%OPT_CONSTRAINT= ( AIRFOIL_AREA > 0.785422 ) * 1e-1

OPT_CONSTRAINT= NONE
%OPT_CONSTRAINT= ( AVG_NO < 7.1e-6 ) * 1

%OPT_CONSTRAINT= ( DRAG < 2.06 ) * 1.0
%
% NACA 0012 Area: 0.0816925 m^2, Thickness: 0.120011 m
%
% SU2_GEO output
% Station 1. ZCoord: 0 m, Area: 0.785422 m^2, Thickness: 1 m, 
% Chord: 1 m, LE radius: 2 1/m, ToC: 1, Alpha: 0.9 deg.
%
%
% Factor to reduce the norm of the gradient (affects the objective function and gradient in the python scripts)
% In general, a norm of the gradient ~1E-6 is desired.
OPT_GRADIENT_FACTOR= 1.0
%
% Factor to relax or accelerate the optimizer convergence (affects the line search in SU2_DEF)
% In general, surface deformations of 0.01'' or 0.0001m are desirable
OPT_RELAX_FACTOR= 1.0
%
% Maximum number of iterations
OPT_ITERATIONS= 100
%
% Requested accuracy
OPT_ACCURACY= 1E-14
%
% Optimization bound (bounds the line search in SU2_DEF)
OPT_LINE_SEARCH_BOUND= 1E6
%
% Upper bound for each design variable (bound in the python optimizer)
%OPT_BOUND_UPPER =  0.00055
%OPT_BOUND_LOWER = -0.00055
OPT_BOUND_UPPER =  1e10
OPT_BOUND_LOWER = -1e10

%
% Finite difference step size for python scripts (0.001 default, recommended
%                                                                                                 0.001 x REF_LENGTH)
FIN_DIFF_STEP = 1e-3
%
% Optimization design variables, separated by semicolons



% 16x1x1
DEFINITION_DV = ( 19, 1.0 | wall_probe | BOX_CENTER, 0, 0, 1.0, 0.0 ); ( 19, 1.0 | wall_probe | BOX_CENTER, 1, 0, 1.0, 0.0 ); ( 19, 1.0 | wall_probe | BOX_CENTER, 2, 0, 1.0, 0.0 ); ( 19, 1.0 | wall_probe | BOX_CENTER, 3, 0, 1.0, 0.0 ); ( 19, 1.0 | wall_probe | BOX_CENTER, 4, 0, 1.0, 0.0 ); ( 19, 1.0 | wall_probe | BOX_CENTER, 5, 0, 1.0, 0.0 ); ( 19, 1.0 | wall_probe | BOX_CENTER, 6, 0, 1.0, 0.0 );
