

nijso : marker tag for heatflux wall : 4


-------------------------------------------------------------------------
|    ___ _   _ ___                                                      |
|   / __| | | |_  )   Release 7.2.1 "Blackbird"                         |
|   \__ \ |_| |/ /                                                      |
|   |___/\___//___|   Suite (Mesh Deformation Code)                     |
|                                                                       |
-------------------------------------------------------------------------
| SU2 Project Website: https://su2code.github.io                        |
|                                                                       |
| The SU2 Project is maintained by the SU2 Foundation                   |
| (http://su2foundation.org)                                            |
-------------------------------------------------------------------------
| Copyright 2012-2021, SU2 Contributors                                 |
|                                                                       |
| SU2 is free software; you can redistribute it and/or                  |
| modify it under the terms of the GNU Lesser General Public            |
| License as published by the Free Software Foundation; either          |
| version 2.1 of the License, or (at your option) any later version.    |
|                                                                       |
| SU2 is distributed in the hope that it will be useful,                |
| but WITHOUT ANY WARRANTY; without even the implied warranty of        |
| MERCHANTABILITY or FITNESS FOR A PARTICULAR PURPOSE. See the GNU      |
| Lesser General Public License for more details.                       |
|                                                                       |
| You should have received a copy of the GNU Lesser General Public      |
| License along with SU2. If not, see <http://www.gnu.org/licenses/>.   |
-------------------------------------------------------------------------


nijso : marker tag for heatflux wall : 4



nijso : marker tag for heatflux wall : 4


----------------- Physical Case Definition ( Zone 0 ) -------------------
Input mesh file name: cube.su2

---------------- Grid deformation parameters ( Zone 0 )  ----------------
Grid deformation using a linear elasticity method.
Setting the FFD box structure.
FFD boxes definition (FFD tag <-> degree <-> coord):
BOX <-> ( 6, 1, 1 ) <-> ( -0.5, -0.5, -0.05, 2, -0.5, -0.05, 2, 2, -0.05, -0.5, 2, -0.05, -0.5, -0.5, 1, 2, -0.5, 1, 2, 2, 1, -0.5, 2, 1 )

-------------------- Output Information ( Zone 0 ) ----------------------
Output mesh file name: mesh_out.su2. 
Cell stiffness scaled by distance to nearest solid surface.

------------- Config File Boundary Information ( Zone 0 ) ---------------
+-----------------------------------------------------------------------+
|                        Marker Type|                        Marker Name|
+-----------------------------------------------------------------------+
|                     Symmetry plane|                    symmetry_bottom|
|                                   |                     symmetry_sides|
+-----------------------------------------------------------------------+
|                     Inlet boundary|                              inlet|
+-----------------------------------------------------------------------+
|                    Outlet boundary|                             outlet|
+-----------------------------------------------------------------------+
|                     Heat flux wall|                           wall_top|
+-----------------------------------------------------------------------+
Three dimensional problem.
64 grid points.
27 volume elements.
5 surface markers.
9 boundary elements in index 0 (Marker = outlet).
nijso: get the marker tagbound
nijso: all markers = 0 symmetry_bottom
nijso: all markers = 1 symmetry_sides
nijso: all markers = 2 inlet
nijso: all markers = 3 outlet
nijso: all markers = 4 wall_top
nijso: symmetry_bottom outlet
nijso: symmetry_sides outlet
nijso: inlet outlet
nijso: outlet outlet
9 boundary elements in index 1 (Marker = inlet).
nijso: get the marker tagbound
nijso: all markers = 0 symmetry_bottom
nijso: all markers = 1 symmetry_sides
nijso: all markers = 2 inlet
nijso: all markers = 3 outlet
nijso: all markers = 4 wall_top
nijso: symmetry_bottom inlet
nijso: symmetry_sides inlet
nijso: inlet inlet
9 boundary elements in index 2 (Marker = wall_top).
nijso: get the marker tagbound
nijso: all markers = 0 symmetry_bottom
nijso: all markers = 1 symmetry_sides
nijso: all markers = 2 inlet
nijso: all markers = 3 outlet
nijso: all markers = 4 wall_top
nijso: symmetry_bottom wall_top
nijso: symmetry_sides wall_top
nijso: inlet wall_top
nijso: outlet wall_top
nijso: wall_top wall_top
9 boundary elements in index 3 (Marker = symmetry_bottom).
nijso: get the marker tagbound
nijso: all markers = 0 symmetry_bottom
nijso: all markers = 1 symmetry_sides
nijso: all markers = 2 inlet
nijso: all markers = 3 outlet
nijso: all markers = 4 wall_top
nijso: symmetry_bottom symmetry_bottom
18 boundary elements in index 4 (Marker = symmetry_sides).
nijso: get the marker tagbound
nijso: all markers = 0 symmetry_bottom
nijso: all markers = 1 symmetry_sides
nijso: all markers = 2 inlet
nijso: all markers = 3 outlet
nijso: all markers = 4 wall_top
nijso: symmetry_bottom symmetry_sides
nijso: symmetry_sides symmetry_sides
27 hexahedra.
nijso: get the marker tagbound
nijso: all markers = 0 symmetry_bottom
nijso: all markers = 1 symmetry_sides
nijso: all markers = 2 inlet
nijso: all markers = 3 outlet
nijso: all markers = 4 wall_top
nijso: symmetry_bottom outlet
nijso: symmetry_sides outlet
nijso: inlet outlet
nijso: outlet outlet
nijso: get the marker tagbound
nijso: all markers = 0 symmetry_bottom
nijso: all markers = 1 symmetry_sides
nijso: all markers = 2 inlet
nijso: all markers = 3 outlet
nijso: all markers = 4 wall_top
nijso: symmetry_bottom inlet
nijso: symmetry_sides inlet
nijso: inlet inlet
nijso: get the marker tagbound
nijso: all markers = 0 symmetry_bottom
nijso: all markers = 1 symmetry_sides
nijso: all markers = 2 inlet
nijso: all markers = 3 outlet
nijso: all markers = 4 wall_top
nijso: symmetry_bottom wall_top
nijso: symmetry_sides wall_top
nijso: inlet wall_top
nijso: outlet wall_top
nijso: wall_top wall_top
nijso: get the marker tagbound
nijso: all markers = 0 symmetry_bottom
nijso: all markers = 1 symmetry_sides
nijso: all markers = 2 inlet
nijso: all markers = 3 outlet
nijso: all markers = 4 wall_top
nijso: symmetry_bottom symmetry_bottom
nijso: get the marker tagbound
nijso: all markers = 0 symmetry_bottom
nijso: all markers = 1 symmetry_sides
nijso: all markers = 2 inlet
nijso: all markers = 3 outlet
nijso: all markers = 4 wall_top
nijso: symmetry_bottom symmetry_sides
nijso: symmetry_sides symmetry_sides

----------------------- Preprocessing computations ----------------------
Setting local point connectivity.
Checking the numerical grid orientation of the interior elements.
All volume elements are correctly orientend.
There has been a re-orientation of 45 QUADRILATERAL surface elements.
Identify edges and vertices.
Setting the bound control volume structure.
Volume of the computational grid: 0.1.
  Info: Ignoring the following volume output fields/groups:
  SOLUTION, PRIMITIVE, RESIDUAL, TIMESTEP
Volume output fields: COORDINATES
  Info: Ignoring the following screen output fields:
  RMS_PRESSURE, RMS_TEMPERATURE, RMS_VELOCITY_X, RMS_NU_TILDE, RMS_TKE, RMS_DISSIPATION, LINSOL_ITER, LINSOL_RESIDUAL
Screen output fields: INNER_ITER, WALL_TIME
History output group(s): 
Ignoring Convergence Field(s): RMS_PRESSURE 
Warning: No (valid) fields chosen for convergence monitoring. Convergence monitoring inactive.
Warning: No (valid) fields chosen for time convergence monitoring. Time convergence monitoring inactive.

--------------------- Surface grid deformation (ZONE 0) -----------------
Performing the deformation of the surface grid.
1 Free Form Deformation boxes.
1 Free Form Deformation nested levels.
FFD box tag: BOX. FFD box level: 0. Degrees: 6, 1, 1.
FFD Blending using Bezier Curves.
Number of parent boxes: 0. Number of child boxes: 0.

----------------- FFD technique (cartesian -> parametric) ---------------
nijso
nijso: setparametriccoord
nijso: set parametric coord
nijso: blending is bezier
nijso, marker = 0 , 1
nijso, considering marker = 0
nijso, considering vertex  = 0
__ 0 , 0 , 1, 0, -0, 
__ -0.5, -0.5, -0.05, 
__ 2, -0.5, -0.05, 
__ 2, 2, -0.05, 
__ 2, -0.5, 1, 
__ dp = -1 , -2.5, inside=1
__ 0 , 1 , 1, 0, -0, 
__ 2, -0.5, -0.05, 
__ 2, 2, -0.05, 
__ 2, -0.5, 1, 
__ -0.5, -0.5, -0.05, 
__ dp = 0.318116 , 0.90276, inside=1
__ 0 , 2 , 1, 0, -0, 
__ 2, 2, -0.05, 
__ 2, -0.5, 1, 
__ -0.5, -0.5, -0.05, 
__ 2, -0.5, -0.05, 
__ dp = -0.5 , -2.5, inside=1
__ 0 , 3 , 1, 0, -0, 
__ 2, -0.5, 1, 
__ -0.5, -0.5, -0.05, 
__ 2, -0.5, -0.05, 
__ 2, 2, -0.05, 
__ dp = 0.05 , 1.05, inside=1
inside = 1
nijso, considering vertex  = 1
__ 0 , 0 , 1, 0, 0.0333333, 
__ -0.5, -0.5, -0.05, 
__ 2, -0.5, -0.05, 
__ 2, 2, -0.05, 
__ 2, -0.5, 1, 
__ dp = -1 , -2.5, inside=1
__ 0 , 1 , 1, 0, 0.0333333, 
__ 2, -0.5, -0.05, 
__ 2, 2, -0.05, 
__ 2, -0.5, 1, 
__ -0.5, -0.5, -0.05, 
__ dp = 0.289457 , 0.90276, inside=1
__ 0 , 2 , 1, 0, 0.0333333, 
__ 2, 2, -0.05, 
__ 2, -0.5, 1, 
__ -0.5, -0.5, -0.05, 
__ 2, -0.5, -0.05, 
__ dp = -0.5 , -2.5, inside=1
__ 0 , 3 , 1, 0, 0.0333333, 
__ 2, -0.5, 1, 
__ -0.5, -0.5, -0.05, 
__ 2, -0.5, -0.05, 
__ 2, 2, -0.05, 
__ dp = 0.0833333 , 1.05, inside=1
inside = 1
nijso, considering vertex  = 2
__ 0 , 0 , 1, 0.333333, 0.0333333, 
__ -0.5, -0.5, -0.05, 
__ 2, -0.5, -0.05, 
__ 2, 2, -0.05, 
__ 2, -0.5, 1, 
__ dp = -1 , -2.5, inside=1
__ 0 , 1 , 1, 0.333333, 0.0333333, 
__ 2, -0.5, -0.05, 
__ 2, 2, -0.05, 
__ 2, -0.5, 1, 
__ -0.5, -0.5, -0.05, 
__ dp = 0.169088 , 0.90276, inside=1
__ 0 , 2 , 1, 0.333333, 0.0333333, 
__ 2, 2, -0.05, 
__ 2, -0.5, 1, 
__ -0.5, -0.5, -0.05, 
__ 2, -0.5, -0.05, 
__ dp = -0.833333 , -2.5, inside=1
__ 0 , 3 , 1, 0.333333, 0.0333333, 
__ 2, -0.5, 1, 
__ -0.5, -0.5, -0.05, 
__ 2, -0.5, -0.05, 
__ 2, 2, -0.05, 
__ dp = 0.0833333 , 1.05, inside=1
inside = 1
nijso, considering vertex  = 3
__ 0 , 0 , 1, 0.333333, 0, 
__ -0.5, -0.5, -0.05, 
__ 2, -0.5, -0.05, 
__ 2, 2, -0.05, 
__ 2, -0.5, 1, 
__ dp = -1 , -2.5, inside=1
__ 0 , 1 , 1, 0.333333, 0, 
__ 2, -0.5, -0.05, 
__ 2, 2, -0.05, 
__ 2, -0.5, 1, 
__ -0.5, -0.5, -0.05, 
__ dp = 0.197748 , 0.90276, inside=1
__ 0 , 2 , 1, 0.333333, 0, 
__ 2, 2, -0.05, 
__ 2, -0.5, 1, 
__ -0.5, -0.5, -0.05, 
__ 2, -0.5, -0.05, 
__ dp = -0.833333 , -2.5, inside=1
__ 0 , 3 , 1, 0.333333, 0, 
__ 2, -0.5, 1, 
__ -0.5, -0.5, -0.05, 
__ 2, -0.5, -0.05, 
__ 2, 2, -0.05, 
__ dp = 0.05 , 1.05, inside=1
inside = 1
nijso, considering vertex  = 4
__ 0 , 0 , 1, 0, 0.0666667, 
__ -0.5, -0.5, -0.05, 
__ 2, -0.5, -0.05, 
__ 2, 2, -0.05, 
__ 2, -0.5, 1, 
__ dp = -1 , -2.5, inside=1
__ 0 , 1 , 1, 0, 0.0666667, 
__ 2, -0.5, -0.05, 
__ 2, 2, -0.05, 
__ 2, -0.5, 1, 
__ -0.5, -0.5, -0.05, 
__ dp = 0.260797 , 0.90276, inside=1
__ 0 , 2 , 1, 0, 0.0666667, 
__ 2, 2, -0.05, 
__ 2, -0.5, 1, 
__ -0.5, -0.5, -0.05, 
__ 2, -0.5, -0.05, 
__ dp = -0.5 , -2.5, inside=1
__ 0 , 3 , 1, 0, 0.0666667, 
__ 2, -0.5, 1, 
__ -0.5, -0.5, -0.05, 
__ 2, -0.5, -0.05, 
__ 2, 2, -0.05, 
__ dp = 0.116667 , 1.05, inside=1
inside = 1
nijso, considering vertex  = 5
__ 0 , 0 , 1, 0.333333, 0.0666667, 
__ -0.5, -0.5, -0.05, 
__ 2, -0.5, -0.05, 
__ 2, 2, -0.05, 
__ 2, -0.5, 1, 
__ dp = -1 , -2.5, inside=1
__ 0 , 1 , 1, 0.333333, 0.0666667, 
__ 2, -0.5, -0.05, 
__ 2, 2, -0.05, 
__ 2, -0.5, 1, 
__ -0.5, -0.5, -0.05, 
__ dp = 0.140429 , 0.90276, inside=1
__ 0 , 2 , 1, 0.333333, 0.0666667, 
__ 2, 2, -0.05, 
__ 2, -0.5, 1, 
__ -0.5, -0.5, -0.05, 
__ 2, -0.5, -0.05, 
__ dp = -0.833333 , -2.5, inside=1
__ 0 , 3 , 1, 0.333333, 0.0666667, 
__ 2, -0.5, 1, 
__ -0.5, -0.5, -0.05, 
__ 2, -0.5, -0.05, 
__ 2, 2, -0.05, 
__ dp = 0.116667 , 1.05, inside=1
inside = 1
nijso, considering vertex  = 6
__ 0 , 0 , 1, 0, 0.1, 
__ -0.5, -0.5, -0.05, 
__ 2, -0.5, -0.05, 
__ 2, 2, -0.05, 
__ 2, -0.5, 1, 
__ dp = -1 , -2.5, inside=1
__ 0 , 1 , 1, 0, 0.1, 
__ 2, -0.5, -0.05, 
__ 2, 2, -0.05, 
__ 2, -0.5, 1, 
__ -0.5, -0.5, -0.05, 
__ dp = 0.232138 , 0.90276, inside=1
__ 0 , 2 , 1, 0, 0.1, 
__ 2, 2, -0.05, 
__ 2, -0.5, 1, 
__ -0.5, -0.5, -0.05, 
__ 2, -0.5, -0.05, 
__ dp = -0.5 , -2.5, inside=1
__ 0 , 3 , 1, 0, 0.1, 
__ 2, -0.5, 1, 
__ -0.5, -0.5, -0.05, 
__ 2, -0.5, -0.05, 
__ 2, 2, -0.05, 
__ dp = 0.15 , 1.05, inside=1
inside = 1
nijso, considering vertex  = 7
__ 0 , 0 , 1, 0.333333, 0.1, 
__ -0.5, -0.5, -0.05, 
__ 2, -0.5, -0.05, 
__ 2, 2, -0.05, 
__ 2, -0.5, 1, 
__ dp = -1 , -2.5, inside=1
__ 0 , 1 , 1, 0.333333, 0.1, 
__ 2, -0.5, -0.05, 
__ 2, 2, -0.05, 
__ 2, -0.5, 1, 
__ -0.5, -0.5, -0.05, 
__ dp = 0.11177 , 0.90276, inside=1
__ 0 , 2 , 1, 0.333333, 0.1, 
__ 2, 2, -0.05, 
__ 2, -0.5, 1, 
__ -0.5, -0.5, -0.05, 
__ 2, -0.5, -0.05, 
__ dp = -0.833333 , -2.5, inside=1
__ 0 , 3 , 1, 0.333333, 0.1, 
__ 2, -0.5, 1, 
__ -0.5, -0.5, -0.05, 
__ 2, -0.5, -0.05, 
__ 2, 2, -0.05, 
__ dp = 0.15 , 1.05, inside=1
inside = 1
nijso, considering vertex  = 8
__ 0 , 0 , 1, 0.666667, 0.0333333, 
__ -0.5, -0.5, -0.05, 
__ 2, -0.5, -0.05, 
__ 2, 2, -0.05, 
__ 2, -0.5, 1, 
__ dp = -1 , -2.5, inside=1
__ 0 , 1 , 1, 0.666667, 0.0333333, 
__ 2, -0.5, -0.05, 
__ 2, 2, -0.05, 
__ 2, -0.5, 1, 
__ -0.5, -0.5, -0.05, 
__ dp = 0.0487204 , 0.90276, inside=1
__ 0 , 2 , 1, 0.666667, 0.0333333, 
__ 2, 2, -0.05, 
__ 2, -0.5, 1, 
__ -0.5, -0.5, -0.05, 
__ 2, -0.5, -0.05, 
__ dp = -1.16667 , -2.5, inside=1
__ 0 , 3 , 1, 0.666667, 0.0333333, 
__ 2, -0.5, 1, 
__ -0.5, -0.5, -0.05, 
__ 2, -0.5, -0.05, 
__ 2, 2, -0.05, 
__ dp = 0.0833333 , 1.05, inside=1
inside = 1
nijso, considering vertex  = 9
__ 0 , 0 , 1, 0.666667, 0, 
__ -0.5, -0.5, -0.05, 
__ 2, -0.5, -0.05, 
__ 2, 2, -0.05, 
__ 2, -0.5, 1, 
__ dp = -1 , -2.5, inside=1
__ 0 , 1 , 1, 0.666667, 0, 
__ 2, -0.5, -0.05, 
__ 2, 2, -0.05, 
__ 2, -0.5, 1, 
__ -0.5, -0.5, -0.05, 
__ dp = 0.0773795 , 0.90276, inside=1
__ 0 , 2 , 1, 0.666667, 0, 
__ 2, 2, -0.05, 
__ 2, -0.5, 1, 
__ -0.5, -0.5, -0.05, 
__ 2, -0.5, -0.05, 
__ dp = -1.16667 , -2.5, inside=1
__ 0 , 3 , 1, 0.666667, 0, 
__ 2, -0.5, 1, 
__ -0.5, -0.5, -0.05, 
__ 2, -0.5, -0.05, 
__ 2, 2, -0.05, 
__ dp = 0.05 , 1.05, inside=1
inside = 1
nijso, considering vertex  = 10
__ 0 , 0 , 1, 0.666667, 0.0666667, 
__ -0.5, -0.5, -0.05, 
__ 2, -0.5, -0.05, 
__ 2, 2, -0.05, 
__ 2, -0.5, 1, 
__ dp = -1 , -2.5, inside=1
__ 0 , 1 , 1, 0.666667, 0.0666667, 
__ 2, -0.5, -0.05, 
__ 2, 2, -0.05, 
__ 2, -0.5, 1, 
__ -0.5, -0.5, -0.05, 
__ dp = 0.0200613 , 0.90276, inside=1
__ 0 , 2 , 1, 0.666667, 0.0666667, 
__ 2, 2, -0.05, 
__ 2, -0.5, 1, 
__ -0.5, -0.5, -0.05, 
__ 2, -0.5, -0.05, 
__ dp = -1.16667 , -2.5, inside=1
__ 0 , 3 , 1, 0.666667, 0.0666667, 
__ 2, -0.5, 1, 
__ -0.5, -0.5, -0.05, 
__ 2, -0.5, -0.05, 
__ 2, 2, -0.05, 
__ dp = 0.116667 , 1.05, inside=1
inside = 1
nijso, considering vertex  = 11
__ 0 , 0 , 1, 0.666667, 0.1, 
__ -0.5, -0.5, -0.05, 
__ 2, -0.5, -0.05, 
__ 2, 2, -0.05, 
__ 2, -0.5, 1, 
__ dp = -1 , -2.5, inside=1
__ 0 , 1 , 1, 0.666667, 0.1, 
__ 2, -0.5, -0.05, 
__ 2, 2, -0.05, 
__ 2, -0.5, 1, 
__ -0.5, -0.5, -0.05, 
__ dp = -0.00859772 , 0.90276, inside=0
__ 0 , 2 , 1, 0.666667, 0.1, 
__ 2, 2, -0.05, 
__ 2, -0.5, 1, 
__ -0.5, -0.5, -0.05, 
__ 2, -0.5, -0.05, 
__ dp = -1.16667 , -2.5, inside=0
__ 0 , 3 , 1, 0.666667, 0.1, 
__ 2, -0.5, 1, 
__ -0.5, -0.5, -0.05, 
__ 2, -0.5, -0.05, 
__ 2, 2, -0.05, 
__ dp = 0.15 , 1.05, inside=0
__ 1 , 0 , 1, 0.666667, 0.1, 
__ -0.5, -0.5, -0.05, 
__ 2, 2, -0.05, 
__ -0.5, 2, 1, 
__ 2, -0.5, 1, 
__ dp = -0.713611 , -1.80552, inside=1
__ 1 , 1 , 1, 0.666667, 0.1, 
__ 2, 2, -0.05, 
__ -0.5, 2, 1, 
__ 2, -0.5, 1, 
__ -0.5, -0.5, -0.05, 
__ dp = 0.833979 , 1.80552, inside=1
__ 1 , 2 , 1, 0.666667, 0.1, 
__ -0.5, 2, 1, 
__ 2, -0.5, 1, 
__ -0.5, -0.5, -0.05, 
__ 2, 2, -0.05, 
__ dp = -0.00859772 , -1.80552, inside=1
__ 1 , 3 , 1, 0.666667, 0.1, 
__ 2, -0.5, 1, 
__ -0.5, -0.5, -0.05, 
__ 2, 2, -0.05, 
__ -0.5, 2, 1, 
__ dp = 0.249334 , 1.80552, inside=1
inside = 1
nijso, considering vertex  = 12
__ 0 , 0 , 1, 1, 0.0333333, 
__ -0.5, -0.5, -0.05, 
__ 2, -0.5, -0.05, 
__ 2, 2, -0.05, 
__ 2, -0.5, 1, 
__ dp = -1 , -2.5, inside=1
__ 0 , 1 , 1, 1, 0.0333333, 
__ 2, -0.5, -0.05, 
__ 2, 2, -0.05, 
__ 2, -0.5, 1, 
__ -0.5, -0.5, -0.05, 
__ dp = -0.0716477 , 0.90276, inside=0
__ 0 , 2 , 1, 1, 0.0333333, 
__ 2, 2, -0.05, 
__ 2, -0.5, 1, 
__ -0.5, -0.5, -0.05, 
__ 2, -0.5, -0.05, 
__ dp = -1.5 , -2.5, inside=0
__ 0 , 3 , 1, 1, 0.0333333, 
__ 2, -0.5, 1, 
__ -0.5, -0.5, -0.05, 
__ 2, -0.5, -0.05, 
__ 2, 2, -0.05, 
__ dp = 0.0833333 , 1.05, inside=0
__ 1 , 0 , 1, 1, 0.0333333, 
__ -0.5, -0.5, -0.05, 
__ 2, 2, -0.05, 
__ -0.5, 2, 1, 
__ 2, -0.5, 1, 
__ dp = -0.650561 , -1.80552, inside=1
__ 1 , 1 , 1, 1, 0.0333333, 
__ 2, 2, -0.05, 
__ -0.5, 2, 1, 
__ 2, -0.5, 1, 
__ -0.5, -0.5, -0.05, 
__ dp = 1.01166 , 1.80552, inside=1
__ 1 , 2 , 1, 1, 0.0333333, 
__ -0.5, 2, 1, 
__ 2, -0.5, 1, 
__ -0.5, -0.5, -0.05, 
__ 2, 2, -0.05, 
__ dp = -0.0716477 , -1.80552, inside=1
__ 1 , 3 , 1, 1, 0.0333333, 
__ 2, -0.5, 1, 
__ -0.5, -0.5, -0.05, 
__ 2, 2, -0.05, 
__ -0.5, 2, 1, 
__ dp = 0.0716477 , 1.80552, inside=1
inside = 1
nijso, considering vertex  = 13
__ 0 , 0 , 1, 1, 0, 
__ -0.5, -0.5, -0.05, 
__ 2, -0.5, -0.05, 
__ 2, 2, -0.05, 
__ 2, -0.5, 1, 
__ dp = -1 , -2.5, inside=1
__ 0 , 1 , 1, 1, 0, 
__ 2, -0.5, -0.05, 
__ 2, 2, -0.05, 
__ 2, -0.5, 1, 
__ -0.5, -0.5, -0.05, 
__ dp = -0.0429886 , 0.90276, inside=0
__ 0 , 2 , 1, 1, 0, 
__ 2, 2, -0.05, 
__ 2, -0.5, 1, 
__ -0.5, -0.5, -0.05, 
__ 2, -0.5, -0.05, 
__ dp = -1.5 , -2.5, inside=0
__ 0 , 3 , 1, 1, 0, 
__ 2, -0.5, 1, 
__ -0.5, -0.5, -0.05, 
__ 2, -0.5, -0.05, 
__ 2, 2, -0.05, 
__ dp = 0.05 , 1.05, inside=0
__ 1 , 0 , 1, 1, 0, 
__ -0.5, -0.5, -0.05, 
__ 2, 2, -0.05, 
__ -0.5, 2, 1, 
__ 2, -0.5, 1, 
__ dp = -0.67922 , -1.80552, inside=1
__ 1 , 1 , 1, 1, 0, 
__ 2, 2, -0.05, 
__ -0.5, 2, 1, 
__ 2, -0.5, 1, 
__ -0.5, -0.5, -0.05, 
__ dp = 1.04032 , 1.80552, inside=1
__ 1 , 2 , 1, 1, 0, 
__ -0.5, 2, 1, 
__ 2, -0.5, 1, 
__ -0.5, -0.5, -0.05, 
__ 2, 2, -0.05, 
__ dp = -0.0429886 , -1.80552, inside=1
__ 1 , 3 , 1, 1, 0, 
__ 2, -0.5, 1, 
__ -0.5, -0.5, -0.05, 
__ 2, 2, -0.05, 
__ -0.5, 2, 1, 
__ dp = 0.0429886 , 1.80552, inside=1
inside = 1
nijso, considering vertex  = 14
__ 0 , 0 , 1, 1, 0.0666667, 
__ -0.5, -0.5, -0.05, 
__ 2, -0.5, -0.05, 
__ 2, 2, -0.05, 
__ 2, -0.5, 1, 
__ dp = -1 , -2.5, inside=1
__ 0 , 1 , 1, 1, 0.0666667, 
__ 2, -0.5, -0.05, 
__ 2, 2, -0.05, 
__ 2, -0.5, 1, 
__ -0.5, -0.5, -0.05, 
__ dp = -0.100307 , 0.90276, inside=0
__ 0 , 2 , 1, 1, 0.0666667, 
__ 2, 2, -0.05, 
__ 2, -0.5, 1, 
__ -0.5, -0.5, -0.05, 
__ 2, -0.5, -0.05, 
__ dp = -1.5 , -2.5, inside=0
__ 0 , 3 , 1, 1, 0.0666667, 
__ 2, -0.5, 1, 
__ -0.5, -0.5, -0.05, 
__ 2, -0.5, -0.05, 
__ 2, 2, -0.05, 
__ dp = 0.116667 , 1.05, inside=0
__ 1 , 0 , 1, 1, 0.0666667, 
__ -0.5, -0.5, -0.05, 
__ 2, 2, -0.05, 
__ -0.5, 2, 1, 
__ 2, -0.5, 1, 
__ dp = -0.621902 , -1.80552, inside=1
__ 1 , 1 , 1, 1, 0.0666667, 
__ 2, 2, -0.05, 
__ -0.5, 2, 1, 
__ 2, -0.5, 1, 
__ -0.5, -0.5, -0.05, 
__ dp = 0.983006 , 1.80552, inside=1
__ 1 , 2 , 1, 1, 0.0666667, 
__ -0.5, 2, 1, 
__ 2, -0.5, 1, 
__ -0.5, -0.5, -0.05, 
__ 2, 2, -0.05, 
__ dp = -0.100307 , -1.80552, inside=1
__ 1 , 3 , 1, 1, 0.0666667, 
__ 2, -0.5, 1, 
__ -0.5, -0.5, -0.05, 
__ 2, 2, -0.05, 
__ -0.5, 2, 1, 
__ dp = 0.100307 , 1.80552, inside=1
inside = 1
nijso, considering vertex  = 15
__ 0 , 0 , 1, 1, 0.1, 
__ -0.5, -0.5, -0.05, 
__ 2, -0.5, -0.05, 
__ 2, 2, -0.05, 
__ 2, -0.5, 1, 
__ dp = -1 , -2.5, inside=1
__ 0 , 1 , 1, 1, 0.1, 
__ 2, -0.5, -0.05, 
__ 2, 2, -0.05, 
__ 2, -0.5, 1, 
__ -0.5, -0.5, -0.05, 
__ dp = -0.128966 , 0.90276, inside=0
__ 0 , 2 , 1, 1, 0.1, 
__ 2, 2, -0.05, 
__ 2, -0.5, 1, 
__ -0.5, -0.5, -0.05, 
__ 2, -0.5, -0.05, 
__ dp = -1.5 , -2.5, inside=0
__ 0 , 3 , 1, 1, 0.1, 
__ 2, -0.5, 1, 
__ -0.5, -0.5, -0.05, 
__ 2, -0.5, -0.05, 
__ 2, 2, -0.05, 
__ dp = 0.15 , 1.05, inside=0
__ 1 , 0 , 1, 1, 0.1, 
__ -0.5, -0.5, -0.05, 
__ 2, 2, -0.05, 
__ -0.5, 2, 1, 
__ 2, -0.5, 1, 
__ dp = -0.593243 , -1.80552, inside=1
__ 1 , 1 , 1, 1, 0.1, 
__ 2, 2, -0.05, 
__ -0.5, 2, 1, 
__ 2, -0.5, 1, 
__ -0.5, -0.5, -0.05, 
__ dp = 0.954347 , 1.80552, inside=1
__ 1 , 2 , 1, 1, 0.1, 
__ -0.5, 2, 1, 
__ 2, -0.5, 1, 
__ -0.5, -0.5, -0.05, 
__ 2, 2, -0.05, 
__ dp = -0.128966 , -1.80552, inside=1
__ 1 , 3 , 1, 1, 0.1, 
__ 2, -0.5, 1, 
__ -0.5, -0.5, -0.05, 
__ 2, 2, -0.05, 
__ -0.5, 2, 1, 
__ dp = 0.128966 , 1.80552, inside=1
inside = 1
nijso, marker = 1 , 1
nijso, considering marker = 1
nijso, considering vertex  = 0
__ 0 , 0 , 0, 1, 0, 
__ -0.5, -0.5, -0.05, 
__ 2, -0.5, -0.05, 
__ 2, 2, -0.05, 
__ 2, -0.5, 1, 
__ dp = -2 , -2.5, inside=1
__ 0 , 1 , 0, 1, 0, 
__ 2, -0.5, -0.05, 
__ 2, 2, -0.05, 
__ 2, -0.5, 1, 
__ -0.5, -0.5, -0.05, 
__ dp = -0.404093 , 0.90276, inside=0
__ 0 , 2 , 0, 1, 0, 
__ 2, 2, -0.05, 
__ 2, -0.5, 1, 
__ -0.5, -0.5, -0.05, 
__ 2, -0.5, -0.05, 
__ dp = -1.5 , -2.5, inside=0
__ 0 , 3 , 0, 1, 0, 
__ 2, -0.5, 1, 
__ -0.5, -0.5, -0.05, 
__ 2, -0.5, -0.05, 
__ 2, 2, -0.05, 
__ dp = 0.05 , 1.05, inside=0
__ 1 , 0 , 0, 1, 0, 
__ -0.5, -0.5, -0.05, 
__ 2, 2, -0.05, 
__ -0.5, 2, 1, 
__ 2, -0.5, 1, 
__ dp = -1.04032 , -1.80552, inside=1
__ 1 , 1 , 0, 1, 0, 
__ 2, 2, -0.05, 
__ -0.5, 2, 1, 
__ 2, -0.5, 1, 
__ -0.5, -0.5, -0.05, 
__ dp = 0.67922 , 1.80552, inside=1
__ 1 , 2 , 0, 1, 0, 
__ -0.5, 2, 1, 
__ 2, -0.5, 1, 
__ -0.5, -0.5, -0.05, 
__ 2, 2, -0.05, 
__ dp = -0.404093 , -1.80552, inside=1
__ 1 , 3 , 0, 1, 0, 
__ 2, -0.5, 1, 
__ -0.5, -0.5, -0.05, 
__ 2, 2, -0.05, 
__ -0.5, 2, 1, 
__ dp = -0.318116 , 1.80552, inside=0
__ 2 , 0 , 0, 1, 0, 
__ -0.5, -0.5, -0.05, 
__ 2, 2, -0.05, 
__ -0.5, 2, -0.05, 
__ -0.5, 2, 1, 
__ dp = -1 , -2.5, inside=1
__ 2 , 1 , 0, 1, 0, 
__ 2, 2, -0.05, 
__ -0.5, 2, -0.05, 
__ -0.5, 2, 1, 
__ -0.5, -0.5, -0.05, 
__ dp = 0.5 , 2.5, inside=1
__ 2 , 2 , 0, 1, 0, 
__ -0.5, 2, -0.05, 
__ -0.5, 2, 1, 
__ -0.5, -0.5, -0.05, 
__ 2, 2, -0.05, 
__ dp = -0.318116 , -0.90276, inside=1
__ 2 , 3 , 0, 1, 0, 
__ -0.5, 2, 1, 
__ -0.5, -0.5, -0.05, 
__ 2, 2, -0.05, 
__ -0.5, 2, -0.05, 
__ dp = 0.05 , 1.05, inside=1
inside = 1
nijso, considering vertex  = 1
__ 0 , 0 , 0, 1, 0.0333333, 
__ -0.5, -0.5, -0.05, 
__ 2, -0.5, -0.05, 
__ 2, 2, -0.05, 
__ 2, -0.5, 1, 
__ dp = -2 , -2.5, inside=1
__ 0 , 1 , 0, 1, 0.0333333, 
__ 2, -0.5, -0.05, 
__ 2, 2, -0.05, 
__ 2, -0.5, 1, 
__ -0.5, -0.5, -0.05, 
__ dp = -0.432752 , 0.90276, inside=0
__ 0 , 2 , 0, 1, 0.0333333, 
__ 2, 2, -0.05, 
__ 2, -0.5, 1, 
__ -0.5, -0.5, -0.05, 
__ 2, -0.5, -0.05, 
__ dp = -1.5 , -2.5, inside=0
__ 0 , 3 , 0, 1, 0.0333333, 
__ 2, -0.5, 1, 
__ -0.5, -0.5, -0.05, 
__ 2, -0.5, -0.05, 
__ 2, 2, -0.05, 
__ dp = 0.0833333 , 1.05, inside=0
__ 1 , 0 , 0, 1, 0.0333333, 
__ -0.5, -0.5, -0.05, 
__ 2, 2, -0.05, 
__ -0.5, 2, 1, 
__ 2, -0.5, 1, 
__ dp = -1.01166 , -1.80552, inside=1
__ 1 , 1 , 0, 1, 0.0333333, 
__ 2, 2, -0.05, 
__ -0.5, 2, 1, 
__ 2, -0.5, 1, 
__ -0.5, -0.5, -0.05, 
__ dp = 0.650561 , 1.80552, inside=1
__ 1 , 2 , 0, 1, 0.0333333, 
__ -0.5, 2, 1, 
__ 2, -0.5, 1, 
__ -0.5, -0.5, -0.05, 
__ 2, 2, -0.05, 
__ dp = -0.432752 , -1.80552, inside=1
__ 1 , 3 , 0, 1, 0.0333333, 
__ 2, -0.5, 1, 
__ -0.5, -0.5, -0.05, 
__ 2, 2, -0.05, 
__ -0.5, 2, 1, 
__ dp = -0.289457 , 1.80552, inside=0
__ 2 , 0 , 0, 1, 0.0333333, 
__ -0.5, -0.5, -0.05, 
__ 2, 2, -0.05, 
__ -0.5, 2, -0.05, 
__ -0.5, 2, 1, 
__ dp = -1 , -2.5, inside=1
__ 2 , 1 , 0, 1, 0.0333333, 
__ 2, 2, -0.05, 
__ -0.5, 2, -0.05, 
__ -0.5, 2, 1, 
__ -0.5, -0.5, -0.05, 
__ dp = 0.5 , 2.5, inside=1
__ 2 , 2 , 0, 1, 0.0333333, 
__ -0.5, 2, -0.05, 
__ -0.5, 2, 1, 
__ -0.5, -0.5, -0.05, 
__ 2, 2, -0.05, 
__ dp = -0.289457 , -0.90276, inside=1
__ 2 , 3 , 0, 1, 0.0333333, 
__ -0.5, 2, 1, 
__ -0.5, -0.5, -0.05, 
__ 2, 2, -0.05, 
__ -0.5, 2, -0.05, 
__ dp = 0.0833333 , 1.05, inside=1
inside = 1
nijso, considering vertex  = 2
__ 0 , 0 , 0, 0.666667, 0.0333333, 
__ -0.5, -0.5, -0.05, 
__ 2, -0.5, -0.05, 
__ 2, 2, -0.05, 
__ 2, -0.5, 1, 
__ dp = -2 , -2.5, inside=1
__ 0 , 1 , 0, 0.666667, 0.0333333, 
__ 2, -0.5, -0.05, 
__ 2, 2, -0.05, 
__ 2, -0.5, 1, 
__ -0.5, -0.5, -0.05, 
__ dp = -0.312384 , 0.90276, inside=0
__ 0 , 2 , 0, 0.666667, 0.0333333, 
__ 2, 2, -0.05, 
__ 2, -0.5, 1, 
__ -0.5, -0.5, -0.05, 
__ 2, -0.5, -0.05, 
__ dp = -1.16667 , -2.5, inside=0
__ 0 , 3 , 0, 0.666667, 0.0333333, 
__ 2, -0.5, 1, 
__ -0.5, -0.5, -0.05, 
__ 2, -0.5, -0.05, 
__ 2, 2, -0.05, 
__ dp = 0.0833333 , 1.05, inside=0
__ 1 , 0 , 0, 0.666667, 0.0333333, 
__ -0.5, -0.5, -0.05, 
__ 2, 2, -0.05, 
__ -0.5, 2, 1, 
__ 2, -0.5, 1, 
__ dp = -1.13203 , -1.80552, inside=1
__ 1 , 1 , 0, 0.666667, 0.0333333, 
__ 2, 2, -0.05, 
__ -0.5, 2, 1, 
__ 2, -0.5, 1, 
__ -0.5, -0.5, -0.05, 
__ dp = 0.530193 , 1.80552, inside=1
__ 1 , 2 , 0, 0.666667, 0.0333333, 
__ -0.5, 2, 1, 
__ 2, -0.5, 1, 
__ -0.5, -0.5, -0.05, 
__ 2, 2, -0.05, 
__ dp = -0.312384 , -1.80552, inside=1
__ 1 , 3 , 0, 0.666667, 0.0333333, 
__ 2, -0.5, 1, 
__ -0.5, -0.5, -0.05, 
__ 2, 2, -0.05, 
__ -0.5, 2, 1, 
__ dp = -0.169088 , 1.80552, inside=0
__ 2 , 0 , 0, 0.666667, 0.0333333, 
__ -0.5, -0.5, -0.05, 
__ 2, 2, -0.05, 
__ -0.5, 2, -0.05, 
__ -0.5, 2, 1, 
__ dp = -1.33333 , -2.5, inside=1
__ 2 , 1 , 0, 0.666667, 0.0333333, 
__ 2, 2, -0.05, 
__ -0.5, 2, -0.05, 
__ -0.5, 2, 1, 
__ -0.5, -0.5, -0.05, 
__ dp = 0.5 , 2.5, inside=1
__ 2 , 2 , 0, 0.666667, 0.0333333, 
__ -0.5, 2, -0.05, 
__ -0.5, 2, 1, 
__ -0.5, -0.5, -0.05, 
__ 2, 2, -0.05, 
__ dp = -0.169088 , -0.90276, inside=1
__ 2 , 3 , 0, 0.666667, 0.0333333, 
__ -0.5, 2, 1, 
__ -0.5, -0.5, -0.05, 
__ 2, 2, -0.05, 
__ -0.5, 2, -0.05, 
__ dp = 0.0833333 , 1.05, inside=1
inside = 1
nijso, considering vertex  = 3
__ 0 , 0 , 0, 0.666667, 0, 
__ -0.5, -0.5, -0.05, 
__ 2, -0.5, -0.05, 
__ 2, 2, -0.05, 
__ 2, -0.5, 1, 
__ dp = -2 , -2.5, inside=1
__ 0 , 1 , 0, 0.666667, 0, 
__ 2, -0.5, -0.05, 
__ 2, 2, -0.05, 
__ 2, -0.5, 1, 
__ -0.5, -0.5, -0.05, 
__ dp = -0.283725 , 0.90276, inside=0
__ 0 , 2 , 0, 0.666667, 0, 
__ 2, 2, -0.05, 
__ 2, -0.5, 1, 
__ -0.5, -0.5, -0.05, 
__ 2, -0.5, -0.05, 
__ dp = -1.16667 , -2.5, inside=0
__ 0 , 3 , 0, 0.666667, 0, 
__ 2, -0.5, 1, 
__ -0.5, -0.5, -0.05, 
__ 2, -0.5, -0.05, 
__ 2, 2, -0.05, 
__ dp = 0.05 , 1.05, inside=0
__ 1 , 0 , 0, 0.666667, 0, 
__ -0.5, -0.5, -0.05, 
__ 2, 2, -0.05, 
__ -0.5, 2, 1, 
__ 2, -0.5, 1, 
__ dp = -1.16069 , -1.80552, inside=1
__ 1 , 1 , 0, 0.666667, 0, 
__ 2, 2, -0.05, 
__ -0.5, 2, 1, 
__ 2, -0.5, 1, 
__ -0.5, -0.5, -0.05, 
__ dp = 0.558852 , 1.80552, inside=1
__ 1 , 2 , 0, 0.666667, 0, 
__ -0.5, 2, 1, 
__ 2, -0.5, 1, 
__ -0.5, -0.5, -0.05, 
__ 2, 2, -0.05, 
__ dp = -0.283725 , -1.80552, inside=1
__ 1 , 3 , 0, 0.666667, 0, 
__ 2, -0.5, 1, 
__ -0.5, -0.5, -0.05, 
__ 2, 2, -0.05, 
__ -0.5, 2, 1, 
__ dp = -0.197748 , 1.80552, inside=0
__ 2 , 0 , 0, 0.666667, 0, 
__ -0.5, -0.5, -0.05, 
__ 2, 2, -0.05, 
__ -0.5, 2, -0.05, 
__ -0.5, 2, 1, 
__ dp = -1.33333 , -2.5, inside=1
__ 2 , 1 , 0, 0.666667, 0, 
__ 2, 2, -0.05, 
__ -0.5, 2, -0.05, 
__ -0.5, 2, 1, 
__ -0.5, -0.5, -0.05, 
__ dp = 0.5 , 2.5, inside=1
__ 2 , 2 , 0, 0.666667, 0, 
__ -0.5, 2, -0.05, 
__ -0.5, 2, 1, 
__ -0.5, -0.5, -0.05, 
__ 2, 2, -0.05, 
__ dp = -0.197748 , -0.90276, inside=1
__ 2 , 3 , 0, 0.666667, 0, 
__ -0.5, 2, 1, 
__ -0.5, -0.5, -0.05, 
__ 2, 2, -0.05, 
__ -0.5, 2, -0.05, 
__ dp = 0.05 , 1.05, inside=1
inside = 1
nijso, considering vertex  = 4
__ 0 , 0 , 0, 1, 0.0666667, 
__ -0.5, -0.5, -0.05, 
__ 2, -0.5, -0.05, 
__ 2, 2, -0.05, 
__ 2, -0.5, 1, 
__ dp = -2 , -2.5, inside=1
__ 0 , 1 , 0, 1, 0.0666667, 
__ 2, -0.5, -0.05, 
__ 2, 2, -0.05, 
__ 2, -0.5, 1, 
__ -0.5, -0.5, -0.05, 
__ dp = -0.461411 , 0.90276, inside=0
__ 0 , 2 , 0, 1, 0.0666667, 
__ 2, 2, -0.05, 
__ 2, -0.5, 1, 
__ -0.5, -0.5, -0.05, 
__ 2, -0.5, -0.05, 
__ dp = -1.5 , -2.5, inside=0
__ 0 , 3 , 0, 1, 0.0666667, 
__ 2, -0.5, 1, 
__ -0.5, -0.5, -0.05, 
__ 2, -0.5, -0.05, 
__ 2, 2, -0.05, 
__ dp = 0.116667 , 1.05, inside=0
__ 1 , 0 , 0, 1, 0.0666667, 
__ -0.5, -0.5, -0.05, 
__ 2, 2, -0.05, 
__ -0.5, 2, 1, 
__ 2, -0.5, 1, 
__ dp = -0.983006 , -1.80552, inside=1
__ 1 , 1 , 0, 1, 0.0666667, 
__ 2, 2, -0.05, 
__ -0.5, 2, 1, 
__ 2, -0.5, 1, 
__ -0.5, -0.5, -0.05, 
__ dp = 0.621902 , 1.80552, inside=1
__ 1 , 2 , 0, 1, 0.0666667, 
__ -0.5, 2, 1, 
__ 2, -0.5, 1, 
__ -0.5, -0.5, -0.05, 
__ 2, 2, -0.05, 
__ dp = -0.461411 , -1.80552, inside=1
__ 1 , 3 , 0, 1, 0.0666667, 
__ 2, -0.5, 1, 
__ -0.5, -0.5, -0.05, 
__ 2, 2, -0.05, 
__ -0.5, 2, 1, 
__ dp = -0.260797 , 1.80552, inside=0
__ 2 , 0 , 0, 1, 0.0666667, 
__ -0.5, -0.5, -0.05, 
__ 2, 2, -0.05, 
__ -0.5, 2, -0.05, 
__ -0.5, 2, 1, 
__ dp = -1 , -2.5, inside=1
__ 2 , 1 , 0, 1, 0.0666667, 
__ 2, 2, -0.05, 
__ -0.5, 2, -0.05, 
__ -0.5, 2, 1, 
__ -0.5, -0.5, -0.05, 
__ dp = 0.5 , 2.5, inside=1
__ 2 , 2 , 0, 1, 0.0666667, 
__ -0.5, 2, -0.05, 
__ -0.5, 2, 1, 
__ -0.5, -0.5, -0.05, 
__ 2, 2, -0.05, 
__ dp = -0.260797 , -0.90276, inside=1
__ 2 , 3 , 0, 1, 0.0666667, 
__ -0.5, 2, 1, 
__ -0.5, -0.5, -0.05, 
__ 2, 2, -0.05, 
__ -0.5, 2, -0.05, 
__ dp = 0.116667 , 1.05, inside=1
inside = 1
nijso, considering vertex  = 5
__ 0 , 0 , 0, 0.666667, 0.0666667, 
__ -0.5, -0.5, -0.05, 
__ 2, -0.5, -0.05, 
__ 2, 2, -0.05, 
__ 2, -0.5, 1, 
__ dp = -2 , -2.5, inside=1
__ 0 , 1 , 0, 0.666667, 0.0666667, 
__ 2, -0.5, -0.05, 
__ 2, 2, -0.05, 
__ 2, -0.5, 1, 
__ -0.5, -0.5, -0.05, 
__ dp = -0.341043 , 0.90276, inside=0
__ 0 , 2 , 0, 0.666667, 0.0666667, 
__ 2, 2, -0.05, 
__ 2, -0.5, 1, 
__ -0.5, -0.5, -0.05, 
__ 2, -0.5, -0.05, 
__ dp = -1.16667 , -2.5, inside=0
__ 0 , 3 , 0, 0.666667, 0.0666667, 
__ 2, -0.5, 1, 
__ -0.5, -0.5, -0.05, 
__ 2, -0.5, -0.05, 
__ 2, 2, -0.05, 
__ dp = 0.116667 , 1.05, inside=0
__ 1 , 0 , 0, 0.666667, 0.0666667, 
__ -0.5, -0.5, -0.05, 
__ 2, 2, -0.05, 
__ -0.5, 2, 1, 
__ 2, -0.5, 1, 
__ dp = -1.10337 , -1.80552, inside=1
__ 1 , 1 , 0, 0.666667, 0.0666667, 
__ 2, 2, -0.05, 
__ -0.5, 2, 1, 
__ 2, -0.5, 1, 
__ -0.5, -0.5, -0.05, 
__ dp = 0.501534 , 1.80552, inside=1
__ 1 , 2 , 0, 0.666667, 0.0666667, 
__ -0.5, 2, 1, 
__ 2, -0.5, 1, 
__ -0.5, -0.5, -0.05, 
__ 2, 2, -0.05, 
__ dp = -0.341043 , -1.80552, inside=1
__ 1 , 3 , 0, 0.666667, 0.0666667, 
__ 2, -0.5, 1, 
__ -0.5, -0.5, -0.05, 
__ 2, 2, -0.05, 
__ -0.5, 2, 1, 
__ dp = -0.140429 , 1.80552, inside=0
__ 2 , 0 , 0, 0.666667, 0.0666667, 
__ -0.5, -0.5, -0.05, 
__ 2, 2, -0.05, 
__ -0.5, 2, -0.05, 
__ -0.5, 2, 1, 
__ dp = -1.33333 , -2.5, inside=1
__ 2 , 1 , 0, 0.666667, 0.0666667, 
__ 2, 2, -0.05, 
__ -0.5, 2, -0.05, 
__ -0.5, 2, 1, 
__ -0.5, -0.5, -0.05, 
__ dp = 0.5 , 2.5, inside=1
__ 2 , 2 , 0, 0.666667, 0.0666667, 
__ -0.5, 2, -0.05, 
__ -0.5, 2, 1, 
__ -0.5, -0.5, -0.05, 
__ 2, 2, -0.05, 
__ dp = -0.140429 , -0.90276, inside=1
__ 2 , 3 , 0, 0.666667, 0.0666667, 
__ -0.5, 2, 1, 
__ -0.5, -0.5, -0.05, 
__ 2, 2, -0.05, 
__ -0.5, 2, -0.05, 
__ dp = 0.116667 , 1.05, inside=1
inside = 1
nijso, considering vertex  = 6
__ 0 , 0 , 0, 1, 0.1, 
__ -0.5, -0.5, -0.05, 
__ 2, -0.5, -0.05, 
__ 2, 2, -0.05, 
__ 2, -0.5, 1, 
__ dp = -2 , -2.5, inside=1
__ 0 , 1 , 0, 1, 0.1, 
__ 2, -0.5, -0.05, 
__ 2, 2, -0.05, 
__ 2, -0.5, 1, 
__ -0.5, -0.5, -0.05, 
__ dp = -0.49007 , 0.90276, inside=0
__ 0 , 2 , 0, 1, 0.1, 
__ 2, 2, -0.05, 
__ 2, -0.5, 1, 
__ -0.5, -0.5, -0.05, 
__ 2, -0.5, -0.05, 
__ dp = -1.5 , -2.5, inside=0
__ 0 , 3 , 0, 1, 0.1, 
__ 2, -0.5, 1, 
__ -0.5, -0.5, -0.05, 
__ 2, -0.5, -0.05, 
__ 2, 2, -0.05, 
__ dp = 0.15 , 1.05, inside=0
__ 1 , 0 , 0, 1, 0.1, 
__ -0.5, -0.5, -0.05, 
__ 2, 2, -0.05, 
__ -0.5, 2, 1, 
__ 2, -0.5, 1, 
__ dp = -0.954347 , -1.80552, inside=1
__ 1 , 1 , 0, 1, 0.1, 
__ 2, 2, -0.05, 
__ -0.5, 2, 1, 
__ 2, -0.5, 1, 
__ -0.5, -0.5, -0.05, 
__ dp = 0.593243 , 1.80552, inside=1
__ 1 , 2 , 0, 1, 0.1, 
__ -0.5, 2, 1, 
__ 2, -0.5, 1, 
__ -0.5, -0.5, -0.05, 
__ 2, 2, -0.05, 
__ dp = -0.49007 , -1.80552, inside=1
__ 1 , 3 , 0, 1, 0.1, 
__ 2, -0.5, 1, 
__ -0.5, -0.5, -0.05, 
__ 2, 2, -0.05, 
__ -0.5, 2, 1, 
__ dp = -0.232138 , 1.80552, inside=0
__ 2 , 0 , 0, 1, 0.1, 
__ -0.5, -0.5, -0.05, 
__ 2, 2, -0.05, 
__ -0.5, 2, -0.05, 
__ -0.5, 2, 1, 
__ dp = -1 , -2.5, inside=1
__ 2 , 1 , 0, 1, 0.1, 
__ 2, 2, -0.05, 
__ -0.5, 2, -0.05, 
__ -0.5, 2, 1, 
__ -0.5, -0.5, -0.05, 
__ dp = 0.5 , 2.5, inside=1
__ 2 , 2 , 0, 1, 0.1, 
__ -0.5, 2, -0.05, 
__ -0.5, 2, 1, 
__ -0.5, -0.5, -0.05, 
__ 2, 2, -0.05, 
__ dp = -0.232138 , -0.90276, inside=1
__ 2 , 3 , 0, 1, 0.1, 
__ -0.5, 2, 1, 
__ -0.5, -0.5, -0.05, 
__ 2, 2, -0.05, 
__ -0.5, 2, -0.05, 
__ dp = 0.15 , 1.05, inside=1
inside = 1
nijso, considering vertex  = 7
__ 0 , 0 , 0, 0.666667, 0.1, 
__ -0.5, -0.5, -0.05, 
__ 2, -0.5, -0.05, 
__ 2, 2, -0.05, 
__ 2, -0.5, 1, 
__ dp = -2 , -2.5, inside=1
__ 0 , 1 , 0, 0.666667, 0.1, 
__ 2, -0.5, -0.05, 
__ 2, 2, -0.05, 
__ 2, -0.5, 1, 
__ -0.5, -0.5, -0.05, 
__ dp = -0.369702 , 0.90276, inside=0
__ 0 , 2 , 0, 0.666667, 0.1, 
__ 2, 2, -0.05, 
__ 2, -0.5, 1, 
__ -0.5, -0.5, -0.05, 
__ 2, -0.5, -0.05, 
__ dp = -1.16667 , -2.5, inside=0
__ 0 , 3 , 0, 0.666667, 0.1, 
__ 2, -0.5, 1, 
__ -0.5, -0.5, -0.05, 
__ 2, -0.5, -0.05, 
__ 2, 2, -0.05, 
__ dp = 0.15 , 1.05, inside=0
__ 1 , 0 , 0, 0.666667, 0.1, 
__ -0.5, -0.5, -0.05, 
__ 2, 2, -0.05, 
__ -0.5, 2, 1, 
__ 2, -0.5, 1, 
__ dp = -1.07471 , -1.80552, inside=1
__ 1 , 1 , 0, 0.666667, 0.1, 
__ 2, 2, -0.05, 
__ -0.5, 2, 1, 
__ 2, -0.5, 1, 
__ -0.5, -0.5, -0.05, 
__ dp = 0.472874 , 1.80552, inside=1
__ 1 , 2 , 0, 0.666667, 0.1, 
__ -0.5, 2, 1, 
__ 2, -0.5, 1, 
__ -0.5, -0.5, -0.05, 
__ 2, 2, -0.05, 
__ dp = -0.369702 , -1.80552, inside=1
__ 1 , 3 , 0, 0.666667, 0.1, 
__ 2, -0.5, 1, 
__ -0.5, -0.5, -0.05, 
__ 2, 2, -0.05, 
__ -0.5, 2, 1, 
__ dp = -0.11177 , 1.80552, inside=0
__ 2 , 0 , 0, 0.666667, 0.1, 
__ -0.5, -0.5, -0.05, 
__ 2, 2, -0.05, 
__ -0.5, 2, -0.05, 
__ -0.5, 2, 1, 
__ dp = -1.33333 , -2.5, inside=1
__ 2 , 1 , 0, 0.666667, 0.1, 
__ 2, 2, -0.05, 
__ -0.5, 2, -0.05, 
__ -0.5, 2, 1, 
__ -0.5, -0.5, -0.05, 
__ dp = 0.5 , 2.5, inside=1
__ 2 , 2 , 0, 0.666667, 0.1, 
__ -0.5, 2, -0.05, 
__ -0.5, 2, 1, 
__ -0.5, -0.5, -0.05, 
__ 2, 2, -0.05, 
__ dp = -0.11177 , -0.90276, inside=1
__ 2 , 3 , 0, 0.666667, 0.1, 
__ -0.5, 2, 1, 
__ -0.5, -0.5, -0.05, 
__ 2, 2, -0.05, 
__ -0.5, 2, -0.05, 
__ dp = 0.15 , 1.05, inside=1
inside = 1
nijso, considering vertex  = 8
__ 0 , 0 , 0, 0.333333, 0.0333333, 
__ -0.5, -0.5, -0.05, 
__ 2, -0.5, -0.05, 
__ 2, 2, -0.05, 
__ 2, -0.5, 1, 
__ dp = -2 , -2.5, inside=1
__ 0 , 1 , 0, 0.333333, 0.0333333, 
__ 2, -0.5, -0.05, 
__ 2, 2, -0.05, 
__ 2, -0.5, 1, 
__ -0.5, -0.5, -0.05, 
__ dp = -0.192016 , 0.90276, inside=0
__ 0 , 2 , 0, 0.333333, 0.0333333, 
__ 2, 2, -0.05, 
__ 2, -0.5, 1, 
__ -0.5, -0.5, -0.05, 
__ 2, -0.5, -0.05, 
__ dp = -0.833333 , -2.5, inside=0
__ 0 , 3 , 0, 0.333333, 0.0333333, 
__ 2, -0.5, 1, 
__ -0.5, -0.5, -0.05, 
__ 2, -0.5, -0.05, 
__ 2, 2, -0.05, 
__ dp = 0.0833333 , 1.05, inside=0
__ 1 , 0 , 0, 0.333333, 0.0333333, 
__ -0.5, -0.5, -0.05, 
__ 2, 2, -0.05, 
__ -0.5, 2, 1, 
__ 2, -0.5, 1, 
__ dp = -1.2524 , -1.80552, inside=1
__ 1 , 1 , 0, 0.333333, 0.0333333, 
__ 2, 2, -0.05, 
__ -0.5, 2, 1, 
__ 2, -0.5, 1, 
__ -0.5, -0.5, -0.05, 
__ dp = 0.409825 , 1.80552, inside=1
__ 1 , 2 , 0, 0.333333, 0.0333333, 
__ -0.5, 2, 1, 
__ 2, -0.5, 1, 
__ -0.5, -0.5, -0.05, 
__ 2, 2, -0.05, 
__ dp = -0.192016 , -1.80552, inside=1
__ 1 , 3 , 0, 0.333333, 0.0333333, 
__ 2, -0.5, 1, 
__ -0.5, -0.5, -0.05, 
__ 2, 2, -0.05, 
__ -0.5, 2, 1, 
__ dp = -0.0487204 , 1.80552, inside=0
__ 2 , 0 , 0, 0.333333, 0.0333333, 
__ -0.5, -0.5, -0.05, 
__ 2, 2, -0.05, 
__ -0.5, 2, -0.05, 
__ -0.5, 2, 1, 
__ dp = -1.66667 , -2.5, inside=1
__ 2 , 1 , 0, 0.333333, 0.0333333, 
__ 2, 2, -0.05, 
__ -0.5, 2, -0.05, 
__ -0.5, 2, 1, 
__ -0.5, -0.5, -0.05, 
__ dp = 0.5 , 2.5, inside=1
__ 2 , 2 , 0, 0.333333, 0.0333333, 
__ -0.5, 2, -0.05, 
__ -0.5, 2, 1, 
__ -0.5, -0.5, -0.05, 
__ 2, 2, -0.05, 
__ dp = -0.0487204 , -0.90276, inside=1
__ 2 , 3 , 0, 0.333333, 0.0333333, 
__ -0.5, 2, 1, 
__ -0.5, -0.5, -0.05, 
__ 2, 2, -0.05, 
__ -0.5, 2, -0.05, 
__ dp = 0.0833333 , 1.05, inside=1
inside = 1
nijso, considering vertex  = 9
__ 0 , 0 , 0, 0.333333, 0, 
__ -0.5, -0.5, -0.05, 
__ 2, -0.5, -0.05, 
__ 2, 2, -0.05, 
__ 2, -0.5, 1, 
__ dp = -2 , -2.5, inside=1
__ 0 , 1 , 0, 0.333333, 0, 
__ 2, -0.5, -0.05, 
__ 2, 2, -0.05, 
__ 2, -0.5, 1, 
__ -0.5, -0.5, -0.05, 
__ dp = -0.163357 , 0.90276, inside=0
__ 0 , 2 , 0, 0.333333, 0, 
__ 2, 2, -0.05, 
__ 2, -0.5, 1, 
__ -0.5, -0.5, -0.05, 
__ 2, -0.5, -0.05, 
__ dp = -0.833333 , -2.5, inside=0
__ 0 , 3 , 0, 0.333333, 0, 
__ 2, -0.5, 1, 
__ -0.5, -0.5, -0.05, 
__ 2, -0.5, -0.05, 
__ 2, 2, -0.05, 
__ dp = 0.05 , 1.05, inside=0
__ 1 , 0 , 0, 0.333333, 0, 
__ -0.5, -0.5, -0.05, 
__ 2, 2, -0.05, 
__ -0.5, 2, 1, 
__ 2, -0.5, 1, 
__ dp = -1.28106 , -1.80552, inside=1
__ 1 , 1 , 0, 0.333333, 0, 
__ 2, 2, -0.05, 
__ -0.5, 2, 1, 
__ 2, -0.5, 1, 
__ -0.5, -0.5, -0.05, 
__ dp = 0.438484 , 1.80552, inside=1
__ 1 , 2 , 0, 0.333333, 0, 
__ -0.5, 2, 1, 
__ 2, -0.5, 1, 
__ -0.5, -0.5, -0.05, 
__ 2, 2, -0.05, 
__ dp = -0.163357 , -1.80552, inside=1
__ 1 , 3 , 0, 0.333333, 0, 
__ 2, -0.5, 1, 
__ -0.5, -0.5, -0.05, 
__ 2, 2, -0.05, 
__ -0.5, 2, 1, 
__ dp = -0.0773795 , 1.80552, inside=0
__ 2 , 0 , 0, 0.333333, 0, 
__ -0.5, -0.5, -0.05, 
__ 2, 2, -0.05, 
__ -0.5, 2, -0.05, 
__ -0.5, 2, 1, 
__ dp = -1.66667 , -2.5, inside=1
__ 2 , 1 , 0, 0.333333, 0, 
__ 2, 2, -0.05, 
__ -0.5, 2, -0.05, 
__ -0.5, 2, 1, 
__ -0.5, -0.5, -0.05, 
__ dp = 0.5 , 2.5, inside=1
__ 2 , 2 , 0, 0.333333, 0, 
__ -0.5, 2, -0.05, 
__ -0.5, 2, 1, 
__ -0.5, -0.5, -0.05, 
__ 2, 2, -0.05, 
__ dp = -0.0773795 , -0.90276, inside=1
__ 2 , 3 , 0, 0.333333, 0, 
__ -0.5, 2, 1, 
__ -0.5, -0.5, -0.05, 
__ 2, 2, -0.05, 
__ -0.5, 2, -0.05, 
__ dp = 0.05 , 1.05, inside=1
inside = 1
nijso, considering vertex  = 10
__ 0 , 0 , 0, 0.333333, 0.0666667, 
__ -0.5, -0.5, -0.05, 
__ 2, -0.5, -0.05, 
__ 2, 2, -0.05, 
__ 2, -0.5, 1, 
__ dp = -2 , -2.5, inside=1
__ 0 , 1 , 0, 0.333333, 0.0666667, 
__ 2, -0.5, -0.05, 
__ 2, 2, -0.05, 
__ 2, -0.5, 1, 
__ -0.5, -0.5, -0.05, 
__ dp = -0.220675 , 0.90276, inside=0
__ 0 , 2 , 0, 0.333333, 0.0666667, 
__ 2, 2, -0.05, 
__ 2, -0.5, 1, 
__ -0.5, -0.5, -0.05, 
__ 2, -0.5, -0.05, 
__ dp = -0.833333 , -2.5, inside=0
__ 0 , 3 , 0, 0.333333, 0.0666667, 
__ 2, -0.5, 1, 
__ -0.5, -0.5, -0.05, 
__ 2, -0.5, -0.05, 
__ 2, 2, -0.05, 
__ dp = 0.116667 , 1.05, inside=0
__ 1 , 0 , 0, 0.333333, 0.0666667, 
__ -0.5, -0.5, -0.05, 
__ 2, 2, -0.05, 
__ -0.5, 2, 1, 
__ 2, -0.5, 1, 
__ dp = -1.22374 , -1.80552, inside=1
__ 1 , 1 , 0, 0.333333, 0.0666667, 
__ 2, 2, -0.05, 
__ -0.5, 2, 1, 
__ 2, -0.5, 1, 
__ -0.5, -0.5, -0.05, 
__ dp = 0.381166 , 1.80552, inside=1
__ 1 , 2 , 0, 0.333333, 0.0666667, 
__ -0.5, 2, 1, 
__ 2, -0.5, 1, 
__ -0.5, -0.5, -0.05, 
__ 2, 2, -0.05, 
__ dp = -0.220675 , -1.80552, inside=1
__ 1 , 3 , 0, 0.333333, 0.0666667, 
__ 2, -0.5, 1, 
__ -0.5, -0.5, -0.05, 
__ 2, 2, -0.05, 
__ -0.5, 2, 1, 
__ dp = -0.0200613 , 1.80552, inside=0
__ 2 , 0 , 0, 0.333333, 0.0666667, 
__ -0.5, -0.5, -0.05, 
__ 2, 2, -0.05, 
__ -0.5, 2, -0.05, 
__ -0.5, 2, 1, 
__ dp = -1.66667 , -2.5, inside=1
__ 2 , 1 , 0, 0.333333, 0.0666667, 
__ 2, 2, -0.05, 
__ -0.5, 2, -0.05, 
__ -0.5, 2, 1, 
__ -0.5, -0.5, -0.05, 
__ dp = 0.5 , 2.5, inside=1
__ 2 , 2 , 0, 0.333333, 0.0666667, 
__ -0.5, 2, -0.05, 
__ -0.5, 2, 1, 
__ -0.5, -0.5, -0.05, 
__ 2, 2, -0.05, 
__ dp = -0.0200613 , -0.90276, inside=1
__ 2 , 3 , 0, 0.333333, 0.0666667, 
__ -0.5, 2, 1, 
__ -0.5, -0.5, -0.05, 
__ 2, 2, -0.05, 
__ -0.5, 2, -0.05, 
__ dp = 0.116667 , 1.05, inside=1
inside = 1
nijso, considering vertex  = 11
__ 0 , 0 , 0, 0.333333, 0.1, 
__ -0.5, -0.5, -0.05, 
__ 2, -0.5, -0.05, 
__ 2, 2, -0.05, 
__ 2, -0.5, 1, 
__ dp = -2 , -2.5, inside=1
__ 0 , 1 , 0, 0.333333, 0.1, 
__ 2, -0.5, -0.05, 
__ 2, 2, -0.05, 
__ 2, -0.5, 1, 
__ -0.5, -0.5, -0.05, 
__ dp = -0.249334 , 0.90276, inside=0
__ 0 , 2 , 0, 0.333333, 0.1, 
__ 2, 2, -0.05, 
__ 2, -0.5, 1, 
__ -0.5, -0.5, -0.05, 
__ 2, -0.5, -0.05, 
__ dp = -0.833333 , -2.5, inside=0
__ 0 , 3 , 0, 0.333333, 0.1, 
__ 2, -0.5, 1, 
__ -0.5, -0.5, -0.05, 
__ 2, -0.5, -0.05, 
__ 2, 2, -0.05, 
__ dp = 0.15 , 1.05, inside=0
__ 1 , 0 , 0, 0.333333, 0.1, 
__ -0.5, -0.5, -0.05, 
__ 2, 2, -0.05, 
__ -0.5, 2, 1, 
__ 2, -0.5, 1, 
__ dp = -1.19508 , -1.80552, inside=1
__ 1 , 1 , 0, 0.333333, 0.1, 
__ 2, 2, -0.05, 
__ -0.5, 2, 1, 
__ 2, -0.5, 1, 
__ -0.5, -0.5, -0.05, 
__ dp = 0.352506 , 1.80552, inside=1
__ 1 , 2 , 0, 0.333333, 0.1, 
__ -0.5, 2, 1, 
__ 2, -0.5, 1, 
__ -0.5, -0.5, -0.05, 
__ 2, 2, -0.05, 
__ dp = -0.249334 , -1.80552, inside=1
__ 1 , 3 , 0, 0.333333, 0.1, 
__ 2, -0.5, 1, 
__ -0.5, -0.5, -0.05, 
__ 2, 2, -0.05, 
__ -0.5, 2, 1, 
__ dp = 0.00859772 , 1.80552, inside=1
inside = 1
nijso, considering vertex  = 12
__ 0 , 0 , 0, 0, 0.0333333, 
__ -0.5, -0.5, -0.05, 
__ 2, -0.5, -0.05, 
__ 2, 2, -0.05, 
__ 2, -0.5, 1, 
__ dp = -2 , -2.5, inside=1
__ 0 , 1 , 0, 0, 0.0333333, 
__ 2, -0.5, -0.05, 
__ 2, 2, -0.05, 
__ 2, -0.5, 1, 
__ -0.5, -0.5, -0.05, 
__ dp = -0.0716477 , 0.90276, inside=0
__ 0 , 2 , 0, 0, 0.0333333, 
__ 2, 2, -0.05, 
__ 2, -0.5, 1, 
__ -0.5, -0.5, -0.05, 
__ 2, -0.5, -0.05, 
__ dp = -0.5 , -2.5, inside=0
__ 0 , 3 , 0, 0, 0.0333333, 
__ 2, -0.5, 1, 
__ -0.5, -0.5, -0.05, 
__ 2, -0.5, -0.05, 
__ 2, 2, -0.05, 
__ dp = 0.0833333 , 1.05, inside=0
__ 1 , 0 , 0, 0, 0.0333333, 
__ -0.5, -0.5, -0.05, 
__ 2, 2, -0.05, 
__ -0.5, 2, 1, 
__ 2, -0.5, 1, 
__ dp = -1.37277 , -1.80552, inside=1
__ 1 , 1 , 0, 0, 0.0333333, 
__ 2, 2, -0.05, 
__ -0.5, 2, 1, 
__ 2, -0.5, 1, 
__ -0.5, -0.5, -0.05, 
__ dp = 0.289457 , 1.80552, inside=1
__ 1 , 2 , 0, 0, 0.0333333, 
__ -0.5, 2, 1, 
__ 2, -0.5, 1, 
__ -0.5, -0.5, -0.05, 
__ 2, 2, -0.05, 
__ dp = -0.0716477 , -1.80552, inside=1
__ 1 , 3 , 0, 0, 0.0333333, 
__ 2, -0.5, 1, 
__ -0.5, -0.5, -0.05, 
__ 2, 2, -0.05, 
__ -0.5, 2, 1, 
__ dp = 0.0716477 , 1.80552, inside=1
inside = 1
nijso, considering vertex  = 13
__ 0 , 0 , 0, 0, -0, 
__ -0.5, -0.5, -0.05, 
__ 2, -0.5, -0.05, 
__ 2, 2, -0.05, 
__ 2, -0.5, 1, 
__ dp = -2 , -2.5, inside=1
__ 0 , 1 , 0, 0, -0, 
__ 2, -0.5, -0.05, 
__ 2, 2, -0.05, 
__ 2, -0.5, 1, 
__ -0.5, -0.5, -0.05, 
__ dp = -0.0429886 , 0.90276, inside=0
__ 0 , 2 , 0, 0, -0, 
__ 2, 2, -0.05, 
__ 2, -0.5, 1, 
__ -0.5, -0.5, -0.05, 
__ 2, -0.5, -0.05, 
__ dp = -0.5 , -2.5, inside=0
__ 0 , 3 , 0, 0, -0, 
__ 2, -0.5, 1, 
__ -0.5, -0.5, -0.05, 
__ 2, -0.5, -0.05, 
__ 2, 2, -0.05, 
__ dp = 0.05 , 1.05, inside=0
__ 1 , 0 , 0, 0, -0, 
__ -0.5, -0.5, -0.05, 
__ 2, 2, -0.05, 
__ -0.5, 2, 1, 
__ 2, -0.5, 1, 
__ dp = -1.40143 , -1.80552, inside=1
__ 1 , 1 , 0, 0, -0, 
__ 2, 2, -0.05, 
__ -0.5, 2, 1, 
__ 2, -0.5, 1, 
__ -0.5, -0.5, -0.05, 
__ dp = 0.318116 , 1.80552, inside=1
__ 1 , 2 , 0, 0, -0, 
__ -0.5, 2, 1, 
__ 2, -0.5, 1, 
__ -0.5, -0.5, -0.05, 
__ 2, 2, -0.05, 
__ dp = -0.0429886 , -1.80552, inside=1
__ 1 , 3 , 0, 0, -0, 
__ 2, -0.5, 1, 
__ -0.5, -0.5, -0.05, 
__ 2, 2, -0.05, 
__ -0.5, 2, 1, 
__ dp = 0.0429886 , 1.80552, inside=1
inside = 1
nijso, considering vertex  = 14
__ 0 , 0 , 0, 0, 0.0666667, 
__ -0.5, -0.5, -0.05, 
__ 2, -0.5, -0.05, 
__ 2, 2, -0.05, 
__ 2, -0.5, 1, 
__ dp = -2 , -2.5, inside=1
__ 0 , 1 , 0, 0, 0.0666667, 
__ 2, -0.5, -0.05, 
__ 2, 2, -0.05, 
__ 2, -0.5, 1, 
__ -0.5, -0.5, -0.05, 
__ dp = -0.100307 , 0.90276, inside=0
__ 0 , 2 , 0, 0, 0.0666667, 
__ 2, 2, -0.05, 
__ 2, -0.5, 1, 
__ -0.5, -0.5, -0.05, 
__ 2, -0.5, -0.05, 
__ dp = -0.5 , -2.5, inside=0
__ 0 , 3 , 0, 0, 0.0666667, 
__ 2, -0.5, 1, 
__ -0.5, -0.5, -0.05, 
__ 2, -0.5, -0.05, 
__ 2, 2, -0.05, 
__ dp = 0.116667 , 1.05, inside=0
__ 1 , 0 , 0, 0, 0.0666667, 
__ -0.5, -0.5, -0.05, 
__ 2, 2, -0.05, 
__ -0.5, 2, 1, 
__ 2, -0.5, 1, 
__ dp = -1.34411 , -1.80552, inside=1
__ 1 , 1 , 0, 0, 0.0666667, 
__ 2, 2, -0.05, 
__ -0.5, 2, 1, 
__ 2, -0.5, 1, 
__ -0.5, -0.5, -0.05, 
__ dp = 0.260797 , 1.80552, inside=1
__ 1 , 2 , 0, 0, 0.0666667, 
__ -0.5, 2, 1, 
__ 2, -0.5, 1, 
__ -0.5, -0.5, -0.05, 
__ 2, 2, -0.05, 
__ dp = -0.100307 , -1.80552, inside=1
__ 1 , 3 , 0, 0, 0.0666667, 
__ 2, -0.5, 1, 
__ -0.5, -0.5, -0.05, 
__ 2, 2, -0.05, 
__ -0.5, 2, 1, 
__ dp = 0.100307 , 1.80552, inside=1
inside = 1
nijso, considering vertex  = 15
__ 0 , 0 , 0, 0, 0.1, 
__ -0.5, -0.5, -0.05, 
__ 2, -0.5, -0.05, 
__ 2, 2, -0.05, 
__ 2, -0.5, 1, 
__ dp = -2 , -2.5, inside=1
__ 0 , 1 , 0, 0, 0.1, 
__ 2, -0.5, -0.05, 
__ 2, 2, -0.05, 
__ 2, -0.5, 1, 
__ -0.5, -0.5, -0.05, 
__ dp = -0.128966 , 0.90276, inside=0
__ 0 , 2 , 0, 0, 0.1, 
__ 2, 2, -0.05, 
__ 2, -0.5, 1, 
__ -0.5, -0.5, -0.05, 
__ 2, -0.5, -0.05, 
__ dp = -0.5 , -2.5, inside=0
__ 0 , 3 , 0, 0, 0.1, 
__ 2, -0.5, 1, 
__ -0.5, -0.5, -0.05, 
__ 2, -0.5, -0.05, 
__ 2, 2, -0.05, 
__ dp = 0.15 , 1.05, inside=0
__ 1 , 0 , 0, 0, 0.1, 
__ -0.5, -0.5, -0.05, 
__ 2, 2, -0.05, 
__ -0.5, 2, 1, 
__ 2, -0.5, 1, 
__ dp = -1.31545 , -1.80552, inside=1
__ 1 , 1 , 0, 0, 0.1, 
__ 2, 2, -0.05, 
__ -0.5, 2, 1, 
__ 2, -0.5, 1, 
__ -0.5, -0.5, -0.05, 
__ dp = 0.232138 , 1.80552, inside=1
__ 1 , 2 , 0, 0, 0.1, 
__ -0.5, 2, 1, 
__ 2, -0.5, 1, 
__ -0.5, -0.5, -0.05, 
__ 2, 2, -0.05, 
__ dp = -0.128966 , -1.80552, inside=1
__ 1 , 3 , 0, 0, 0.1, 
__ 2, -0.5, 1, 
__ -0.5, -0.5, -0.05, 
__ 2, 2, -0.05, 
__ -0.5, 2, 1, 
__ dp = 0.128966 , 1.80552, inside=1
inside = 1
nijso, marker = 2 , 1
nijso, considering marker = 2
nijso, considering vertex  = 0
__ 0 , 0 , 1, 1, 0, 
__ -0.5, -0.5, -0.05, 
__ 2, -0.5, -0.05, 
__ 2, 2, -0.05, 
__ 2, -0.5, 1, 
__ dp = -1 , -2.5, inside=1
__ 0 , 1 , 1, 1, 0, 
__ 2, -0.5, -0.05, 
__ 2, 2, -0.05, 
__ 2, -0.5, 1, 
__ -0.5, -0.5, -0.05, 
__ dp = -0.0429886 , 0.90276, inside=0
__ 0 , 2 , 1, 1, 0, 
__ 2, 2, -0.05, 
__ 2, -0.5, 1, 
__ -0.5, -0.5, -0.05, 
__ 2, -0.5, -0.05, 
__ dp = -1.5 , -2.5, inside=0
__ 0 , 3 , 1, 1, 0, 
__ 2, -0.5, 1, 
__ -0.5, -0.5, -0.05, 
__ 2, -0.5, -0.05, 
__ 2, 2, -0.05, 
__ dp = 0.05 , 1.05, inside=0
__ 1 , 0 , 1, 1, 0, 
__ -0.5, -0.5, -0.05, 
__ 2, 2, -0.05, 
__ -0.5, 2, 1, 
__ 2, -0.5, 1, 
__ dp = -0.67922 , -1.80552, inside=1
__ 1 , 1 , 1, 1, 0, 
__ 2, 2, -0.05, 
__ -0.5, 2, 1, 
__ 2, -0.5, 1, 
__ -0.5, -0.5, -0.05, 
__ dp = 1.04032 , 1.80552, inside=1
__ 1 , 2 , 1, 1, 0, 
__ -0.5, 2, 1, 
__ 2, -0.5, 1, 
__ -0.5, -0.5, -0.05, 
__ 2, 2, -0.05, 
__ dp = -0.0429886 , -1.80552, inside=1
__ 1 , 3 , 1, 1, 0, 
__ 2, -0.5, 1, 
__ -0.5, -0.5, -0.05, 
__ 2, 2, -0.05, 
__ -0.5, 2, 1, 
__ dp = 0.0429886 , 1.80552, inside=1
inside = 1
nijso, considering vertex  = 1
__ 0 , 0 , 1, 1, 0.0333333, 
__ -0.5, -0.5, -0.05, 
__ 2, -0.5, -0.05, 
__ 2, 2, -0.05, 
__ 2, -0.5, 1, 
__ dp = -1 , -2.5, inside=1
__ 0 , 1 , 1, 1, 0.0333333, 
__ 2, -0.5, -0.05, 
__ 2, 2, -0.05, 
__ 2, -0.5, 1, 
__ -0.5, -0.5, -0.05, 
__ dp = -0.0716477 , 0.90276, inside=0
__ 0 , 2 , 1, 1, 0.0333333, 
__ 2, 2, -0.05, 
__ 2, -0.5, 1, 
__ -0.5, -0.5, -0.05, 
__ 2, -0.5, -0.05, 
__ dp = -1.5 , -2.5, inside=0
__ 0 , 3 , 1, 1, 0.0333333, 
__ 2, -0.5, 1, 
__ -0.5, -0.5, -0.05, 
__ 2, -0.5, -0.05, 
__ 2, 2, -0.05, 
__ dp = 0.0833333 , 1.05, inside=0
__ 1 , 0 , 1, 1, 0.0333333, 
__ -0.5, -0.5, -0.05, 
__ 2, 2, -0.05, 
__ -0.5, 2, 1, 
__ 2, -0.5, 1, 
__ dp = -0.650561 , -1.80552, inside=1
__ 1 , 1 , 1, 1, 0.0333333, 
__ 2, 2, -0.05, 
__ -0.5, 2, 1, 
__ 2, -0.5, 1, 
__ -0.5, -0.5, -0.05, 
__ dp = 1.01166 , 1.80552, inside=1
__ 1 , 2 , 1, 1, 0.0333333, 
__ -0.5, 2, 1, 
__ 2, -0.5, 1, 
__ -0.5, -0.5, -0.05, 
__ 2, 2, -0.05, 
__ dp = -0.0716477 , -1.80552, inside=1
__ 1 , 3 , 1, 1, 0.0333333, 
__ 2, -0.5, 1, 
__ -0.5, -0.5, -0.05, 
__ 2, 2, -0.05, 
__ -0.5, 2, 1, 
__ dp = 0.0716477 , 1.80552, inside=1
inside = 1
nijso, considering vertex  = 2
__ 0 , 0 , 0.666667, 1, 0.0333333, 
__ -0.5, -0.5, -0.05, 
__ 2, -0.5, -0.05, 
__ 2, 2, -0.05, 
__ 2, -0.5, 1, 
__ dp = -1.33333 , -2.5, inside=1
__ 0 , 1 , 0.666667, 1, 0.0333333, 
__ 2, -0.5, -0.05, 
__ 2, 2, -0.05, 
__ 2, -0.5, 1, 
__ -0.5, -0.5, -0.05, 
__ dp = -0.192016 , 0.90276, inside=0
__ 0 , 2 , 0.666667, 1, 0.0333333, 
__ 2, 2, -0.05, 
__ 2, -0.5, 1, 
__ -0.5, -0.5, -0.05, 
__ 2, -0.5, -0.05, 
__ dp = -1.5 , -2.5, inside=0
__ 0 , 3 , 0.666667, 1, 0.0333333, 
__ 2, -0.5, 1, 
__ -0.5, -0.5, -0.05, 
__ 2, -0.5, -0.05, 
__ 2, 2, -0.05, 
__ dp = 0.0833333 , 1.05, inside=0
__ 1 , 0 , 0.666667, 1, 0.0333333, 
__ -0.5, -0.5, -0.05, 
__ 2, 2, -0.05, 
__ -0.5, 2, 1, 
__ 2, -0.5, 1, 
__ dp = -0.770929 , -1.80552, inside=1
__ 1 , 1 , 0.666667, 1, 0.0333333, 
__ 2, 2, -0.05, 
__ -0.5, 2, 1, 
__ 2, -0.5, 1, 
__ -0.5, -0.5, -0.05, 
__ dp = 0.891297 , 1.80552, inside=1
__ 1 , 2 , 0.666667, 1, 0.0333333, 
__ -0.5, 2, 1, 
__ 2, -0.5, 1, 
__ -0.5, -0.5, -0.05, 
__ 2, 2, -0.05, 
__ dp = -0.192016 , -1.80552, inside=1
__ 1 , 3 , 0.666667, 1, 0.0333333, 
__ 2, -0.5, 1, 
__ -0.5, -0.5, -0.05, 
__ 2, 2, -0.05, 
__ -0.5, 2, 1, 
__ dp = -0.0487204 , 1.80552, inside=0
__ 2 , 0 , 0.666667, 1, 0.0333333, 
__ -0.5, -0.5, -0.05, 
__ 2, 2, -0.05, 
__ -0.5, 2, -0.05, 
__ -0.5, 2, 1, 
__ dp = -1 , -2.5, inside=1
__ 2 , 1 , 0.666667, 1, 0.0333333, 
__ 2, 2, -0.05, 
__ -0.5, 2, -0.05, 
__ -0.5, 2, 1, 
__ -0.5, -0.5, -0.05, 
__ dp = 1.16667 , 2.5, inside=1
__ 2 , 2 , 0.666667, 1, 0.0333333, 
__ -0.5, 2, -0.05, 
__ -0.5, 2, 1, 
__ -0.5, -0.5, -0.05, 
__ 2, 2, -0.05, 
__ dp = -0.0487204 , -0.90276, inside=1
__ 2 , 3 , 0.666667, 1, 0.0333333, 
__ -0.5, 2, 1, 
__ -0.5, -0.5, -0.05, 
__ 2, 2, -0.05, 
__ -0.5, 2, -0.05, 
__ dp = 0.0833333 , 1.05, inside=1
inside = 1
nijso, considering vertex  = 3
__ 0 , 0 , 0.666667, 1, 0, 
__ -0.5, -0.5, -0.05, 
__ 2, -0.5, -0.05, 
__ 2, 2, -0.05, 
__ 2, -0.5, 1, 
__ dp = -1.33333 , -2.5, inside=1
__ 0 , 1 , 0.666667, 1, 0, 
__ 2, -0.5, -0.05, 
__ 2, 2, -0.05, 
__ 2, -0.5, 1, 
__ -0.5, -0.5, -0.05, 
__ dp = -0.163357 , 0.90276, inside=0
__ 0 , 2 , 0.666667, 1, 0, 
__ 2, 2, -0.05, 
__ 2, -0.5, 1, 
__ -0.5, -0.5, -0.05, 
__ 2, -0.5, -0.05, 
__ dp = -1.5 , -2.5, inside=0
__ 0 , 3 , 0.666667, 1, 0, 
__ 2, -0.5, 1, 
__ -0.5, -0.5, -0.05, 
__ 2, -0.5, -0.05, 
__ 2, 2, -0.05, 
__ dp = 0.05 , 1.05, inside=0
__ 1 , 0 , 0.666667, 1, 0, 
__ -0.5, -0.5, -0.05, 
__ 2, 2, -0.05, 
__ -0.5, 2, 1, 
__ 2, -0.5, 1, 
__ dp = -0.799588 , -1.80552, inside=1
__ 1 , 1 , 0.666667, 1, 0, 
__ 2, 2, -0.05, 
__ -0.5, 2, 1, 
__ 2, -0.5, 1, 
__ -0.5, -0.5, -0.05, 
__ dp = 0.919956 , 1.80552, inside=1
__ 1 , 2 , 0.666667, 1, 0, 
__ -0.5, 2, 1, 
__ 2, -0.5, 1, 
__ -0.5, -0.5, -0.05, 
__ 2, 2, -0.05, 
__ dp = -0.163357 , -1.80552, inside=1
__ 1 , 3 , 0.666667, 1, 0, 
__ 2, -0.5, 1, 
__ -0.5, -0.5, -0.05, 
__ 2, 2, -0.05, 
__ -0.5, 2, 1, 
__ dp = -0.0773795 , 1.80552, inside=0
__ 2 , 0 , 0.666667, 1, 0, 
__ -0.5, -0.5, -0.05, 
__ 2, 2, -0.05, 
__ -0.5, 2, -0.05, 
__ -0.5, 2, 1, 
__ dp = -1 , -2.5, inside=1
__ 2 , 1 , 0.666667, 1, 0, 
__ 2, 2, -0.05, 
__ -0.5, 2, -0.05, 
__ -0.5, 2, 1, 
__ -0.5, -0.5, -0.05, 
__ dp = 1.16667 , 2.5, inside=1
__ 2 , 2 , 0.666667, 1, 0, 
__ -0.5, 2, -0.05, 
__ -0.5, 2, 1, 
__ -0.5, -0.5, -0.05, 
__ 2, 2, -0.05, 
__ dp = -0.0773795 , -0.90276, inside=1
__ 2 , 3 , 0.666667, 1, 0, 
__ -0.5, 2, 1, 
__ -0.5, -0.5, -0.05, 
__ 2, 2, -0.05, 
__ -0.5, 2, -0.05, 
__ dp = 0.05 , 1.05, inside=1
inside = 1
nijso, considering vertex  = 4
__ 0 , 0 , 1, 1, 0.0666667, 
__ -0.5, -0.5, -0.05, 
__ 2, -0.5, -0.05, 
__ 2, 2, -0.05, 
__ 2, -0.5, 1, 
__ dp = -1 , -2.5, inside=1
__ 0 , 1 , 1, 1, 0.0666667, 
__ 2, -0.5, -0.05, 
__ 2, 2, -0.05, 
__ 2, -0.5, 1, 
__ -0.5, -0.5, -0.05, 
__ dp = -0.100307 , 0.90276, inside=0
__ 0 , 2 , 1, 1, 0.0666667, 
__ 2, 2, -0.05, 
__ 2, -0.5, 1, 
__ -0.5, -0.5, -0.05, 
__ 2, -0.5, -0.05, 
__ dp = -1.5 , -2.5, inside=0
__ 0 , 3 , 1, 1, 0.0666667, 
__ 2, -0.5, 1, 
__ -0.5, -0.5, -0.05, 
__ 2, -0.5, -0.05, 
__ 2, 2, -0.05, 
__ dp = 0.116667 , 1.05, inside=0
__ 1 , 0 , 1, 1, 0.0666667, 
__ -0.5, -0.5, -0.05, 
__ 2, 2, -0.05, 
__ -0.5, 2, 1, 
__ 2, -0.5, 1, 
__ dp = -0.621902 , -1.80552, inside=1
__ 1 , 1 , 1, 1, 0.0666667, 
__ 2, 2, -0.05, 
__ -0.5, 2, 1, 
__ 2, -0.5, 1, 
__ -0.5, -0.5, -0.05, 
__ dp = 0.983006 , 1.80552, inside=1
__ 1 , 2 , 1, 1, 0.0666667, 
__ -0.5, 2, 1, 
__ 2, -0.5, 1, 
__ -0.5, -0.5, -0.05, 
__ 2, 2, -0.05, 
__ dp = -0.100307 , -1.80552, inside=1
__ 1 , 3 , 1, 1, 0.0666667, 
__ 2, -0.5, 1, 
__ -0.5, -0.5, -0.05, 
__ 2, 2, -0.05, 
__ -0.5, 2, 1, 
__ dp = 0.100307 , 1.80552, inside=1
inside = 1
nijso, considering vertex  = 5
__ 0 , 0 , 0.666667, 1, 0.0666667, 
__ -0.5, -0.5, -0.05, 
__ 2, -0.5, -0.05, 
__ 2, 2, -0.05, 
__ 2, -0.5, 1, 
__ dp = -1.33333 , -2.5, inside=1
__ 0 , 1 , 0.666667, 1, 0.0666667, 
__ 2, -0.5, -0.05, 
__ 2, 2, -0.05, 
__ 2, -0.5, 1, 
__ -0.5, -0.5, -0.05, 
__ dp = -0.220675 , 0.90276, inside=0
__ 0 , 2 , 0.666667, 1, 0.0666667, 
__ 2, 2, -0.05, 
__ 2, -0.5, 1, 
__ -0.5, -0.5, -0.05, 
__ 2, -0.5, -0.05, 
__ dp = -1.5 , -2.5, inside=0
__ 0 , 3 , 0.666667, 1, 0.0666667, 
__ 2, -0.5, 1, 
__ -0.5, -0.5, -0.05, 
__ 2, -0.5, -0.05, 
__ 2, 2, -0.05, 
__ dp = 0.116667 , 1.05, inside=0
__ 1 , 0 , 0.666667, 1, 0.0666667, 
__ -0.5, -0.5, -0.05, 
__ 2, 2, -0.05, 
__ -0.5, 2, 1, 
__ 2, -0.5, 1, 
__ dp = -0.74227 , -1.80552, inside=1
__ 1 , 1 , 0.666667, 1, 0.0666667, 
__ 2, 2, -0.05, 
__ -0.5, 2, 1, 
__ 2, -0.5, 1, 
__ -0.5, -0.5, -0.05, 
__ dp = 0.862638 , 1.80552, inside=1
__ 1 , 2 , 0.666667, 1, 0.0666667, 
__ -0.5, 2, 1, 
__ 2, -0.5, 1, 
__ -0.5, -0.5, -0.05, 
__ 2, 2, -0.05, 
__ dp = -0.220675 , -1.80552, inside=1
__ 1 , 3 , 0.666667, 1, 0.0666667, 
__ 2, -0.5, 1, 
__ -0.5, -0.5, -0.05, 
__ 2, 2, -0.05, 
__ -0.5, 2, 1, 
__ dp = -0.0200613 , 1.80552, inside=0
__ 2 , 0 , 0.666667, 1, 0.0666667, 
__ -0.5, -0.5, -0.05, 
__ 2, 2, -0.05, 
__ -0.5, 2, -0.05, 
__ -0.5, 2, 1, 
__ dp = -1 , -2.5, inside=1
__ 2 , 1 , 0.666667, 1, 0.0666667, 
__ 2, 2, -0.05, 
__ -0.5, 2, -0.05, 
__ -0.5, 2, 1, 
__ -0.5, -0.5, -0.05, 
__ dp = 1.16667 , 2.5, inside=1
__ 2 , 2 , 0.666667, 1, 0.0666667, 
__ -0.5, 2, -0.05, 
__ -0.5, 2, 1, 
__ -0.5, -0.5, -0.05, 
__ 2, 2, -0.05, 
__ dp = -0.0200613 , -0.90276, inside=1
__ 2 , 3 , 0.666667, 1, 0.0666667, 
__ -0.5, 2, 1, 
__ -0.5, -0.5, -0.05, 
__ 2, 2, -0.05, 
__ -0.5, 2, -0.05, 
__ dp = 0.116667 , 1.05, inside=1
inside = 1
nijso, considering vertex  = 6
__ 0 , 0 , 1, 1, 0.1, 
__ -0.5, -0.5, -0.05, 
__ 2, -0.5, -0.05, 
__ 2, 2, -0.05, 
__ 2, -0.5, 1, 
__ dp = -1 , -2.5, inside=1
__ 0 , 1 , 1, 1, 0.1, 
__ 2, -0.5, -0.05, 
__ 2, 2, -0.05, 
__ 2, -0.5, 1, 
__ -0.5, -0.5, -0.05, 
__ dp = -0.128966 , 0.90276, inside=0
__ 0 , 2 , 1, 1, 0.1, 
__ 2, 2, -0.05, 
__ 2, -0.5, 1, 
__ -0.5, -0.5, -0.05, 
__ 2, -0.5, -0.05, 
__ dp = -1.5 , -2.5, inside=0
__ 0 , 3 , 1, 1, 0.1, 
__ 2, -0.5, 1, 
__ -0.5, -0.5, -0.05, 
__ 2, -0.5, -0.05, 
__ 2, 2, -0.05, 
__ dp = 0.15 , 1.05, inside=0
__ 1 , 0 , 1, 1, 0.1, 
__ -0.5, -0.5, -0.05, 
__ 2, 2, -0.05, 
__ -0.5, 2, 1, 
__ 2, -0.5, 1, 
__ dp = -0.593243 , -1.80552, inside=1
__ 1 , 1 , 1, 1, 0.1, 
__ 2, 2, -0.05, 
__ -0.5, 2, 1, 
__ 2, -0.5, 1, 
__ -0.5, -0.5, -0.05, 
__ dp = 0.954347 , 1.80552, inside=1
__ 1 , 2 , 1, 1, 0.1, 
__ -0.5, 2, 1, 
__ 2, -0.5, 1, 
__ -0.5, -0.5, -0.05, 
__ 2, 2, -0.05, 
__ dp = -0.128966 , -1.80552, inside=1
__ 1 , 3 , 1, 1, 0.1, 
__ 2, -0.5, 1, 
__ -0.5, -0.5, -0.05, 
__ 2, 2, -0.05, 
__ -0.5, 2, 1, 
__ dp = 0.128966 , 1.80552, inside=1
inside = 1
nijso, considering vertex  = 7
__ 0 , 0 , 0.666667, 1, 0.1, 
__ -0.5, -0.5, -0.05, 
__ 2, -0.5, -0.05, 
__ 2, 2, -0.05, 
__ 2, -0.5, 1, 
__ dp = -1.33333 , -2.5, inside=1
__ 0 , 1 , 0.666667, 1, 0.1, 
__ 2, -0.5, -0.05, 
__ 2, 2, -0.05, 
__ 2, -0.5, 1, 
__ -0.5, -0.5, -0.05, 
__ dp = -0.249334 , 0.90276, inside=0
__ 0 , 2 , 0.666667, 1, 0.1, 
__ 2, 2, -0.05, 
__ 2, -0.5, 1, 
__ -0.5, -0.5, -0.05, 
__ 2, -0.5, -0.05, 
__ dp = -1.5 , -2.5, inside=0
__ 0 , 3 , 0.666667, 1, 0.1, 
__ 2, -0.5, 1, 
__ -0.5, -0.5, -0.05, 
__ 2, -0.5, -0.05, 
__ 2, 2, -0.05, 
__ dp = 0.15 , 1.05, inside=0
__ 1 , 0 , 0.666667, 1, 0.1, 
__ -0.5, -0.5, -0.05, 
__ 2, 2, -0.05, 
__ -0.5, 2, 1, 
__ 2, -0.5, 1, 
__ dp = -0.713611 , -1.80552, inside=1
__ 1 , 1 , 0.666667, 1, 0.1, 
__ 2, 2, -0.05, 
__ -0.5, 2, 1, 
__ 2, -0.5, 1, 
__ -0.5, -0.5, -0.05, 
__ dp = 0.833979 , 1.80552, inside=1
__ 1 , 2 , 0.666667, 1, 0.1, 
__ -0.5, 2, 1, 
__ 2, -0.5, 1, 
__ -0.5, -0.5, -0.05, 
__ 2, 2, -0.05, 
__ dp = -0.249334 , -1.80552, inside=1
__ 1 , 3 , 0.666667, 1, 0.1, 
__ 2, -0.5, 1, 
__ -0.5, -0.5, -0.05, 
__ 2, 2, -0.05, 
__ -0.5, 2, 1, 
__ dp = 0.00859772 , 1.80552, inside=1
inside = 1
nijso, considering vertex  = 8
__ 0 , 0 , 0.333333, 1, 0.0333333, 
__ -0.5, -0.5, -0.05, 
__ 2, -0.5, -0.05, 
__ 2, 2, -0.05, 
__ 2, -0.5, 1, 
__ dp = -1.66667 , -2.5, inside=1
__ 0 , 1 , 0.333333, 1, 0.0333333, 
__ 2, -0.5, -0.05, 
__ 2, 2, -0.05, 
__ 2, -0.5, 1, 
__ -0.5, -0.5, -0.05, 
__ dp = -0.312384 , 0.90276, inside=0
__ 0 , 2 , 0.333333, 1, 0.0333333, 
__ 2, 2, -0.05, 
__ 2, -0.5, 1, 
__ -0.5, -0.5, -0.05, 
__ 2, -0.5, -0.05, 
__ dp = -1.5 , -2.5, inside=0
__ 0 , 3 , 0.333333, 1, 0.0333333, 
__ 2, -0.5, 1, 
__ -0.5, -0.5, -0.05, 
__ 2, -0.5, -0.05, 
__ 2, 2, -0.05, 
__ dp = 0.0833333 , 1.05, inside=0
__ 1 , 0 , 0.333333, 1, 0.0333333, 
__ -0.5, -0.5, -0.05, 
__ 2, 2, -0.05, 
__ -0.5, 2, 1, 
__ 2, -0.5, 1, 
__ dp = -0.891297 , -1.80552, inside=1
__ 1 , 1 , 0.333333, 1, 0.0333333, 
__ 2, 2, -0.05, 
__ -0.5, 2, 1, 
__ 2, -0.5, 1, 
__ -0.5, -0.5, -0.05, 
__ dp = 0.770929 , 1.80552, inside=1
__ 1 , 2 , 0.333333, 1, 0.0333333, 
__ -0.5, 2, 1, 
__ 2, -0.5, 1, 
__ -0.5, -0.5, -0.05, 
__ 2, 2, -0.05, 
__ dp = -0.312384 , -1.80552, inside=1
__ 1 , 3 , 0.333333, 1, 0.0333333, 
__ 2, -0.5, 1, 
__ -0.5, -0.5, -0.05, 
__ 2, 2, -0.05, 
__ -0.5, 2, 1, 
__ dp = -0.169088 , 1.80552, inside=0
__ 2 , 0 , 0.333333, 1, 0.0333333, 
__ -0.5, -0.5, -0.05, 
__ 2, 2, -0.05, 
__ -0.5, 2, -0.05, 
__ -0.5, 2, 1, 
__ dp = -1 , -2.5, inside=1
__ 2 , 1 , 0.333333, 1, 0.0333333, 
__ 2, 2, -0.05, 
__ -0.5, 2, -0.05, 
__ -0.5, 2, 1, 
__ -0.5, -0.5, -0.05, 
__ dp = 0.833333 , 2.5, inside=1
__ 2 , 2 , 0.333333, 1, 0.0333333, 
__ -0.5, 2, -0.05, 
__ -0.5, 2, 1, 
__ -0.5, -0.5, -0.05, 
__ 2, 2, -0.05, 
__ dp = -0.169088 , -0.90276, inside=1
__ 2 , 3 , 0.333333, 1, 0.0333333, 
__ -0.5, 2, 1, 
__ -0.5, -0.5, -0.05, 
__ 2, 2, -0.05, 
__ -0.5, 2, -0.05, 
__ dp = 0.0833333 , 1.05, inside=1
inside = 1
nijso, considering vertex  = 9
__ 0 , 0 , 0.333333, 1, 0, 
__ -0.5, -0.5, -0.05, 
__ 2, -0.5, -0.05, 
__ 2, 2, -0.05, 
__ 2, -0.5, 1, 
__ dp = -1.66667 , -2.5, inside=1
__ 0 , 1 , 0.333333, 1, 0, 
__ 2, -0.5, -0.05, 
__ 2, 2, -0.05, 
__ 2, -0.5, 1, 
__ -0.5, -0.5, -0.05, 
__ dp = -0.283725 , 0.90276, inside=0
__ 0 , 2 , 0.333333, 1, 0, 
__ 2, 2, -0.05, 
__ 2, -0.5, 1, 
__ -0.5, -0.5, -0.05, 
__ 2, -0.5, -0.05, 
__ dp = -1.5 , -2.5, inside=0
__ 0 , 3 , 0.333333, 1, 0, 
__ 2, -0.5, 1, 
__ -0.5, -0.5, -0.05, 
__ 2, -0.5, -0.05, 
__ 2, 2, -0.05, 
__ dp = 0.05 , 1.05, inside=0
__ 1 , 0 , 0.333333, 1, 0, 
__ -0.5, -0.5, -0.05, 
__ 2, 2, -0.05, 
__ -0.5, 2, 1, 
__ 2, -0.5, 1, 
__ dp = -0.919956 , -1.80552, inside=1
__ 1 , 1 , 0.333333, 1, 0, 
__ 2, 2, -0.05, 
__ -0.5, 2, 1, 
__ 2, -0.5, 1, 
__ -0.5, -0.5, -0.05, 
__ dp = 0.799588 , 1.80552, inside=1
__ 1 , 2 , 0.333333, 1, 0, 
__ -0.5, 2, 1, 
__ 2, -0.5, 1, 
__ -0.5, -0.5, -0.05, 
__ 2, 2, -0.05, 
__ dp = -0.283725 , -1.80552, inside=1
__ 1 , 3 , 0.333333, 1, 0, 
__ 2, -0.5, 1, 
__ -0.5, -0.5, -0.05, 
__ 2, 2, -0.05, 
__ -0.5, 2, 1, 
__ dp = -0.197748 , 1.80552, inside=0
__ 2 , 0 , 0.333333, 1, 0, 
__ -0.5, -0.5, -0.05, 
__ 2, 2, -0.05, 
__ -0.5, 2, -0.05, 
__ -0.5, 2, 1, 
__ dp = -1 , -2.5, inside=1
__ 2 , 1 , 0.333333, 1, 0, 
__ 2, 2, -0.05, 
__ -0.5, 2, -0.05, 
__ -0.5, 2, 1, 
__ -0.5, -0.5, -0.05, 
__ dp = 0.833333 , 2.5, inside=1
__ 2 , 2 , 0.333333, 1, 0, 
__ -0.5, 2, -0.05, 
__ -0.5, 2, 1, 
__ -0.5, -0.5, -0.05, 
__ 2, 2, -0.05, 
__ dp = -0.197748 , -0.90276, inside=1
__ 2 , 3 , 0.333333, 1, 0, 
__ -0.5, 2, 1, 
__ -0.5, -0.5, -0.05, 
__ 2, 2, -0.05, 
__ -0.5, 2, -0.05, 
__ dp = 0.05 , 1.05, inside=1
inside = 1
nijso, considering vertex  = 10
__ 0 , 0 , 0.333333, 1, 0.0666667, 
__ -0.5, -0.5, -0.05, 
__ 2, -0.5, -0.05, 
__ 2, 2, -0.05, 
__ 2, -0.5, 1, 
__ dp = -1.66667 , -2.5, inside=1
__ 0 , 1 , 0.333333, 1, 0.0666667, 
__ 2, -0.5, -0.05, 
__ 2, 2, -0.05, 
__ 2, -0.5, 1, 
__ -0.5, -0.5, -0.05, 
__ dp = -0.341043 , 0.90276, inside=0
__ 0 , 2 , 0.333333, 1, 0.0666667, 
__ 2, 2, -0.05, 
__ 2, -0.5, 1, 
__ -0.5, -0.5, -0.05, 
__ 2, -0.5, -0.05, 
__ dp = -1.5 , -2.5, inside=0
__ 0 , 3 , 0.333333, 1, 0.0666667, 
__ 2, -0.5, 1, 
__ -0.5, -0.5, -0.05, 
__ 2, -0.5, -0.05, 
__ 2, 2, -0.05, 
__ dp = 0.116667 , 1.05, inside=0
__ 1 , 0 , 0.333333, 1, 0.0666667, 
__ -0.5, -0.5, -0.05, 
__ 2, 2, -0.05, 
__ -0.5, 2, 1, 
__ 2, -0.5, 1, 
__ dp = -0.862638 , -1.80552, inside=1
__ 1 , 1 , 0.333333, 1, 0.0666667, 
__ 2, 2, -0.05, 
__ -0.5, 2, 1, 
__ 2, -0.5, 1, 
__ -0.5, -0.5, -0.05, 
__ dp = 0.74227 , 1.80552, inside=1
__ 1 , 2 , 0.333333, 1, 0.0666667, 
__ -0.5, 2, 1, 
__ 2, -0.5, 1, 
__ -0.5, -0.5, -0.05, 
__ 2, 2, -0.05, 
__ dp = -0.341043 , -1.80552, inside=1
__ 1 , 3 , 0.333333, 1, 0.0666667, 
__ 2, -0.5, 1, 
__ -0.5, -0.5, -0.05, 
__ 2, 2, -0.05, 
__ -0.5, 2, 1, 
__ dp = -0.140429 , 1.80552, inside=0
__ 2 , 0 , 0.333333, 1, 0.0666667, 
__ -0.5, -0.5, -0.05, 
__ 2, 2, -0.05, 
__ -0.5, 2, -0.05, 
__ -0.5, 2, 1, 
__ dp = -1 , -2.5, inside=1
__ 2 , 1 , 0.333333, 1, 0.0666667, 
__ 2, 2, -0.05, 
__ -0.5, 2, -0.05, 
__ -0.5, 2, 1, 
__ -0.5, -0.5, -0.05, 
__ dp = 0.833333 , 2.5, inside=1
__ 2 , 2 , 0.333333, 1, 0.0666667, 
__ -0.5, 2, -0.05, 
__ -0.5, 2, 1, 
__ -0.5, -0.5, -0.05, 
__ 2, 2, -0.05, 
__ dp = -0.140429 , -0.90276, inside=1
__ 2 , 3 , 0.333333, 1, 0.0666667, 
__ -0.5, 2, 1, 
__ -0.5, -0.5, -0.05, 
__ 2, 2, -0.05, 
__ -0.5, 2, -0.05, 
__ dp = 0.116667 , 1.05, inside=1
inside = 1
nijso, considering vertex  = 11
__ 0 , 0 , 0.333333, 1, 0.1, 
__ -0.5, -0.5, -0.05, 
__ 2, -0.5, -0.05, 
__ 2, 2, -0.05, 
__ 2, -0.5, 1, 
__ dp = -1.66667 , -2.5, inside=1
__ 0 , 1 , 0.333333, 1, 0.1, 
__ 2, -0.5, -0.05, 
__ 2, 2, -0.05, 
__ 2, -0.5, 1, 
__ -0.5, -0.5, -0.05, 
__ dp = -0.369702 , 0.90276, inside=0
__ 0 , 2 , 0.333333, 1, 0.1, 
__ 2, 2, -0.05, 
__ 2, -0.5, 1, 
__ -0.5, -0.5, -0.05, 
__ 2, -0.5, -0.05, 
__ dp = -1.5 , -2.5, inside=0
__ 0 , 3 , 0.333333, 1, 0.1, 
__ 2, -0.5, 1, 
__ -0.5, -0.5, -0.05, 
__ 2, -0.5, -0.05, 
__ 2, 2, -0.05, 
__ dp = 0.15 , 1.05, inside=0
__ 1 , 0 , 0.333333, 1, 0.1, 
__ -0.5, -0.5, -0.05, 
__ 2, 2, -0.05, 
__ -0.5, 2, 1, 
__ 2, -0.5, 1, 
__ dp = -0.833979 , -1.80552, inside=1
__ 1 , 1 , 0.333333, 1, 0.1, 
__ 2, 2, -0.05, 
__ -0.5, 2, 1, 
__ 2, -0.5, 1, 
__ -0.5, -0.5, -0.05, 
__ dp = 0.713611 , 1.80552, inside=1
__ 1 , 2 , 0.333333, 1, 0.1, 
__ -0.5, 2, 1, 
__ 2, -0.5, 1, 
__ -0.5, -0.5, -0.05, 
__ 2, 2, -0.05, 
__ dp = -0.369702 , -1.80552, inside=1
__ 1 , 3 , 0.333333, 1, 0.1, 
__ 2, -0.5, 1, 
__ -0.5, -0.5, -0.05, 
__ 2, 2, -0.05, 
__ -0.5, 2, 1, 
__ dp = -0.11177 , 1.80552, inside=0
__ 2 , 0 , 0.333333, 1, 0.1, 
__ -0.5, -0.5, -0.05, 
__ 2, 2, -0.05, 
__ -0.5, 2, -0.05, 
__ -0.5, 2, 1, 
__ dp = -1 , -2.5, inside=1
__ 2 , 1 , 0.333333, 1, 0.1, 
__ 2, 2, -0.05, 
__ -0.5, 2, -0.05, 
__ -0.5, 2, 1, 
__ -0.5, -0.5, -0.05, 
__ dp = 0.833333 , 2.5, inside=1
__ 2 , 2 , 0.333333, 1, 0.1, 
__ -0.5, 2, -0.05, 
__ -0.5, 2, 1, 
__ -0.5, -0.5, -0.05, 
__ 2, 2, -0.05, 
__ dp = -0.11177 , -0.90276, inside=1
__ 2 , 3 , 0.333333, 1, 0.1, 
__ -0.5, 2, 1, 
__ -0.5, -0.5, -0.05, 
__ 2, 2, -0.05, 
__ -0.5, 2, -0.05, 
__ dp = 0.15 , 1.05, inside=1
inside = 1
nijso, considering vertex  = 12
__ 0 , 0 , 0, 1, 0.0333333, 
__ -0.5, -0.5, -0.05, 
__ 2, -0.5, -0.05, 
__ 2, 2, -0.05, 
__ 2, -0.5, 1, 
__ dp = -2 , -2.5, inside=1
__ 0 , 1 , 0, 1, 0.0333333, 
__ 2, -0.5, -0.05, 
__ 2, 2, -0.05, 
__ 2, -0.5, 1, 
__ -0.5, -0.5, -0.05, 
__ dp = -0.432752 , 0.90276, inside=0
__ 0 , 2 , 0, 1, 0.0333333, 
__ 2, 2, -0.05, 
__ 2, -0.5, 1, 
__ -0.5, -0.5, -0.05, 
__ 2, -0.5, -0.05, 
__ dp = -1.5 , -2.5, inside=0
__ 0 , 3 , 0, 1, 0.0333333, 
__ 2, -0.5, 1, 
__ -0.5, -0.5, -0.05, 
__ 2, -0.5, -0.05, 
__ 2, 2, -0.05, 
__ dp = 0.0833333 , 1.05, inside=0
__ 1 , 0 , 0, 1, 0.0333333, 
__ -0.5, -0.5, -0.05, 
__ 2, 2, -0.05, 
__ -0.5, 2, 1, 
__ 2, -0.5, 1, 
__ dp = -1.01166 , -1.80552, inside=1
__ 1 , 1 , 0, 1, 0.0333333, 
__ 2, 2, -0.05, 
__ -0.5, 2, 1, 
__ 2, -0.5, 1, 
__ -0.5, -0.5, -0.05, 
__ dp = 0.650561 , 1.80552, inside=1
__ 1 , 2 , 0, 1, 0.0333333, 
__ -0.5, 2, 1, 
__ 2, -0.5, 1, 
__ -0.5, -0.5, -0.05, 
__ 2, 2, -0.05, 
__ dp = -0.432752 , -1.80552, inside=1
__ 1 , 3 , 0, 1, 0.0333333, 
__ 2, -0.5, 1, 
__ -0.5, -0.5, -0.05, 
__ 2, 2, -0.05, 
__ -0.5, 2, 1, 
__ dp = -0.289457 , 1.80552, inside=0
__ 2 , 0 , 0, 1, 0.0333333, 
__ -0.5, -0.5, -0.05, 
__ 2, 2, -0.05, 
__ -0.5, 2, -0.05, 
__ -0.5, 2, 1, 
__ dp = -1 , -2.5, inside=1
__ 2 , 1 , 0, 1, 0.0333333, 
__ 2, 2, -0.05, 
__ -0.5, 2, -0.05, 
__ -0.5, 2, 1, 
__ -0.5, -0.5, -0.05, 
__ dp = 0.5 , 2.5, inside=1
__ 2 , 2 , 0, 1, 0.0333333, 
__ -0.5, 2, -0.05, 
__ -0.5, 2, 1, 
__ -0.5, -0.5, -0.05, 
__ 2, 2, -0.05, 
__ dp = -0.289457 , -0.90276, inside=1
__ 2 , 3 , 0, 1, 0.0333333, 
__ -0.5, 2, 1, 
__ -0.5, -0.5, -0.05, 
__ 2, 2, -0.05, 
__ -0.5, 2, -0.05, 
__ dp = 0.0833333 , 1.05, inside=1
inside = 1
nijso, considering vertex  = 13
__ 0 , 0 , 0, 1, 0, 
__ -0.5, -0.5, -0.05, 
__ 2, -0.5, -0.05, 
__ 2, 2, -0.05, 
__ 2, -0.5, 1, 
__ dp = -2 , -2.5, inside=1
__ 0 , 1 , 0, 1, 0, 
__ 2, -0.5, -0.05, 
__ 2, 2, -0.05, 
__ 2, -0.5, 1, 
__ -0.5, -0.5, -0.05, 
__ dp = -0.404093 , 0.90276, inside=0
__ 0 , 2 , 0, 1, 0, 
__ 2, 2, -0.05, 
__ 2, -0.5, 1, 
__ -0.5, -0.5, -0.05, 
__ 2, -0.5, -0.05, 
__ dp = -1.5 , -2.5, inside=0
__ 0 , 3 , 0, 1, 0, 
__ 2, -0.5, 1, 
__ -0.5, -0.5, -0.05, 
__ 2, -0.5, -0.05, 
__ 2, 2, -0.05, 
__ dp = 0.05 , 1.05, inside=0
__ 1 , 0 , 0, 1, 0, 
__ -0.5, -0.5, -0.05, 
__ 2, 2, -0.05, 
__ -0.5, 2, 1, 
__ 2, -0.5, 1, 
__ dp = -1.04032 , -1.80552, inside=1
__ 1 , 1 , 0, 1, 0, 
__ 2, 2, -0.05, 
__ -0.5, 2, 1, 
__ 2, -0.5, 1, 
__ -0.5, -0.5, -0.05, 
__ dp = 0.67922 , 1.80552, inside=1
__ 1 , 2 , 0, 1, 0, 
__ -0.5, 2, 1, 
__ 2, -0.5, 1, 
__ -0.5, -0.5, -0.05, 
__ 2, 2, -0.05, 
__ dp = -0.404093 , -1.80552, inside=1
__ 1 , 3 , 0, 1, 0, 
__ 2, -0.5, 1, 
__ -0.5, -0.5, -0.05, 
__ 2, 2, -0.05, 
__ -0.5, 2, 1, 
__ dp = -0.318116 , 1.80552, inside=0
__ 2 , 0 , 0, 1, 0, 
__ -0.5, -0.5, -0.05, 
__ 2, 2, -0.05, 
__ -0.5, 2, -0.05, 
__ -0.5, 2, 1, 
__ dp = -1 , -2.5, inside=1
__ 2 , 1 , 0, 1, 0, 
__ 2, 2, -0.05, 
__ -0.5, 2, -0.05, 
__ -0.5, 2, 1, 
__ -0.5, -0.5, -0.05, 
__ dp = 0.5 , 2.5, inside=1
__ 2 , 2 , 0, 1, 0, 
__ -0.5, 2, -0.05, 
__ -0.5, 2, 1, 
__ -0.5, -0.5, -0.05, 
__ 2, 2, -0.05, 
__ dp = -0.318116 , -0.90276, inside=1
__ 2 , 3 , 0, 1, 0, 
__ -0.5, 2, 1, 
__ -0.5, -0.5, -0.05, 
__ 2, 2, -0.05, 
__ -0.5, 2, -0.05, 
__ dp = 0.05 , 1.05, inside=1
inside = 1
nijso, considering vertex  = 14
__ 0 , 0 , 0, 1, 0.0666667, 
__ -0.5, -0.5, -0.05, 
__ 2, -0.5, -0.05, 
__ 2, 2, -0.05, 
__ 2, -0.5, 1, 
__ dp = -2 , -2.5, inside=1
__ 0 , 1 , 0, 1, 0.0666667, 
__ 2, -0.5, -0.05, 
__ 2, 2, -0.05, 
__ 2, -0.5, 1, 
__ -0.5, -0.5, -0.05, 
__ dp = -0.461411 , 0.90276, inside=0
__ 0 , 2 , 0, 1, 0.0666667, 
__ 2, 2, -0.05, 
__ 2, -0.5, 1, 
__ -0.5, -0.5, -0.05, 
__ 2, -0.5, -0.05, 
__ dp = -1.5 , -2.5, inside=0
__ 0 , 3 , 0, 1, 0.0666667, 
__ 2, -0.5, 1, 
__ -0.5, -0.5, -0.05, 
__ 2, -0.5, -0.05, 
__ 2, 2, -0.05, 
__ dp = 0.116667 , 1.05, inside=0
__ 1 , 0 , 0, 1, 0.0666667, 
__ -0.5, -0.5, -0.05, 
__ 2, 2, -0.05, 
__ -0.5, 2, 1, 
__ 2, -0.5, 1, 
__ dp = -0.983006 , -1.80552, inside=1
__ 1 , 1 , 0, 1, 0.0666667, 
__ 2, 2, -0.05, 
__ -0.5, 2, 1, 
__ 2, -0.5, 1, 
__ -0.5, -0.5, -0.05, 
__ dp = 0.621902 , 1.80552, inside=1
__ 1 , 2 , 0, 1, 0.0666667, 
__ -0.5, 2, 1, 
__ 2, -0.5, 1, 
__ -0.5, -0.5, -0.05, 
__ 2, 2, -0.05, 
__ dp = -0.461411 , -1.80552, inside=1
__ 1 , 3 , 0, 1, 0.0666667, 
__ 2, -0.5, 1, 
__ -0.5, -0.5, -0.05, 
__ 2, 2, -0.05, 
__ -0.5, 2, 1, 
__ dp = -0.260797 , 1.80552, inside=0
__ 2 , 0 , 0, 1, 0.0666667, 
__ -0.5, -0.5, -0.05, 
__ 2, 2, -0.05, 
__ -0.5, 2, -0.05, 
__ -0.5, 2, 1, 
__ dp = -1 , -2.5, inside=1
__ 2 , 1 , 0, 1, 0.0666667, 
__ 2, 2, -0.05, 
__ -0.5, 2, -0.05, 
__ -0.5, 2, 1, 
__ -0.5, -0.5, -0.05, 
__ dp = 0.5 , 2.5, inside=1
__ 2 , 2 , 0, 1, 0.0666667, 
__ -0.5, 2, -0.05, 
__ -0.5, 2, 1, 
__ -0.5, -0.5, -0.05, 
__ 2, 2, -0.05, 
__ dp = -0.260797 , -0.90276, inside=1
__ 2 , 3 , 0, 1, 0.0666667, 
__ -0.5, 2, 1, 
__ -0.5, -0.5, -0.05, 
__ 2, 2, -0.05, 
__ -0.5, 2, -0.05, 
__ dp = 0.116667 , 1.05, inside=1
inside = 1
nijso, considering vertex  = 15
__ 0 , 0 , 0, 1, 0.1, 
__ -0.5, -0.5, -0.05, 
__ 2, -0.5, -0.05, 
__ 2, 2, -0.05, 
__ 2, -0.5, 1, 
__ dp = -2 , -2.5, inside=1
__ 0 , 1 , 0, 1, 0.1, 
__ 2, -0.5, -0.05, 
__ 2, 2, -0.05, 
__ 2, -0.5, 1, 
__ -0.5, -0.5, -0.05, 
__ dp = -0.49007 , 0.90276, inside=0
__ 0 , 2 , 0, 1, 0.1, 
__ 2, 2, -0.05, 
__ 2, -0.5, 1, 
__ -0.5, -0.5, -0.05, 
__ 2, -0.5, -0.05, 
__ dp = -1.5 , -2.5, inside=0
__ 0 , 3 , 0, 1, 0.1, 
__ 2, -0.5, 1, 
__ -0.5, -0.5, -0.05, 
__ 2, -0.5, -0.05, 
__ 2, 2, -0.05, 
__ dp = 0.15 , 1.05, inside=0
__ 1 , 0 , 0, 1, 0.1, 
__ -0.5, -0.5, -0.05, 
__ 2, 2, -0.05, 
__ -0.5, 2, 1, 
__ 2, -0.5, 1, 
__ dp = -0.954347 , -1.80552, inside=1
__ 1 , 1 , 0, 1, 0.1, 
__ 2, 2, -0.05, 
__ -0.5, 2, 1, 
__ 2, -0.5, 1, 
__ -0.5, -0.5, -0.05, 
__ dp = 0.593243 , 1.80552, inside=1
__ 1 , 2 , 0, 1, 0.1, 
__ -0.5, 2, 1, 
__ 2, -0.5, 1, 
__ -0.5, -0.5, -0.05, 
__ 2, 2, -0.05, 
__ dp = -0.49007 , -1.80552, inside=1
__ 1 , 3 , 0, 1, 0.1, 
__ 2, -0.5, 1, 
__ -0.5, -0.5, -0.05, 
__ 2, 2, -0.05, 
__ -0.5, 2, 1, 
__ dp = -0.232138 , 1.80552, inside=0
__ 2 , 0 , 0, 1, 0.1, 
__ -0.5, -0.5, -0.05, 
__ 2, 2, -0.05, 
__ -0.5, 2, -0.05, 
__ -0.5, 2, 1, 
__ dp = -1 , -2.5, inside=1
__ 2 , 1 , 0, 1, 0.1, 
__ 2, 2, -0.05, 
__ -0.5, 2, -0.05, 
__ -0.5, 2, 1, 
__ -0.5, -0.5, -0.05, 
__ dp = 0.5 , 2.5, inside=1
__ 2 , 2 , 0, 1, 0.1, 
__ -0.5, 2, -0.05, 
__ -0.5, 2, 1, 
__ -0.5, -0.5, -0.05, 
__ 2, 2, -0.05, 
__ dp = -0.232138 , -0.90276, inside=1
__ 2 , 3 , 0, 1, 0.1, 
__ -0.5, 2, 1, 
__ -0.5, -0.5, -0.05, 
__ 2, 2, -0.05, 
__ -0.5, 2, -0.05, 
__ dp = 0.15 , 1.05, inside=1
inside = 1
nijso, marker = 3 , 1
nijso, considering marker = 3
nijso, considering vertex  = 0
__ 0 , 0 , 0, 0, -0, 
__ -0.5, -0.5, -0.05, 
__ 2, -0.5, -0.05, 
__ 2, 2, -0.05, 
__ 2, -0.5, 1, 
__ dp = -2 , -2.5, inside=1
__ 0 , 1 , 0, 0, -0, 
__ 2, -0.5, -0.05, 
__ 2, 2, -0.05, 
__ 2, -0.5, 1, 
__ -0.5, -0.5, -0.05, 
__ dp = -0.0429886 , 0.90276, inside=0
__ 0 , 2 , 0, 0, -0, 
__ 2, 2, -0.05, 
__ 2, -0.5, 1, 
__ -0.5, -0.5, -0.05, 
__ 2, -0.5, -0.05, 
__ dp = -0.5 , -2.5, inside=0
__ 0 , 3 , 0, 0, -0, 
__ 2, -0.5, 1, 
__ -0.5, -0.5, -0.05, 
__ 2, -0.5, -0.05, 
__ 2, 2, -0.05, 
__ dp = 0.05 , 1.05, inside=0
__ 1 , 0 , 0, 0, -0, 
__ -0.5, -0.5, -0.05, 
__ 2, 2, -0.05, 
__ -0.5, 2, 1, 
__ 2, -0.5, 1, 
__ dp = -1.40143 , -1.80552, inside=1
__ 1 , 1 , 0, 0, -0, 
__ 2, 2, -0.05, 
__ -0.5, 2, 1, 
__ 2, -0.5, 1, 
__ -0.5, -0.5, -0.05, 
__ dp = 0.318116 , 1.80552, inside=1
__ 1 , 2 , 0, 0, -0, 
__ -0.5, 2, 1, 
__ 2, -0.5, 1, 
__ -0.5, -0.5, -0.05, 
__ 2, 2, -0.05, 
__ dp = -0.0429886 , -1.80552, inside=1
__ 1 , 3 , 0, 0, -0, 
__ 2, -0.5, 1, 
__ -0.5, -0.5, -0.05, 
__ 2, 2, -0.05, 
__ -0.5, 2, 1, 
__ dp = 0.0429886 , 1.80552, inside=1
inside = 1
nijso, considering vertex  = 1
__ 0 , 0 , 0, 0, 0.0333333, 
__ -0.5, -0.5, -0.05, 
__ 2, -0.5, -0.05, 
__ 2, 2, -0.05, 
__ 2, -0.5, 1, 
__ dp = -2 , -2.5, inside=1
__ 0 , 1 , 0, 0, 0.0333333, 
__ 2, -0.5, -0.05, 
__ 2, 2, -0.05, 
__ 2, -0.5, 1, 
__ -0.5, -0.5, -0.05, 
__ dp = -0.0716477 , 0.90276, inside=0
__ 0 , 2 , 0, 0, 0.0333333, 
__ 2, 2, -0.05, 
__ 2, -0.5, 1, 
__ -0.5, -0.5, -0.05, 
__ 2, -0.5, -0.05, 
__ dp = -0.5 , -2.5, inside=0
__ 0 , 3 , 0, 0, 0.0333333, 
__ 2, -0.5, 1, 
__ -0.5, -0.5, -0.05, 
__ 2, -0.5, -0.05, 
__ 2, 2, -0.05, 
__ dp = 0.0833333 , 1.05, inside=0
__ 1 , 0 , 0, 0, 0.0333333, 
__ -0.5, -0.5, -0.05, 
__ 2, 2, -0.05, 
__ -0.5, 2, 1, 
__ 2, -0.5, 1, 
__ dp = -1.37277 , -1.80552, inside=1
__ 1 , 1 , 0, 0, 0.0333333, 
__ 2, 2, -0.05, 
__ -0.5, 2, 1, 
__ 2, -0.5, 1, 
__ -0.5, -0.5, -0.05, 
__ dp = 0.289457 , 1.80552, inside=1
__ 1 , 2 , 0, 0, 0.0333333, 
__ -0.5, 2, 1, 
__ 2, -0.5, 1, 
__ -0.5, -0.5, -0.05, 
__ 2, 2, -0.05, 
__ dp = -0.0716477 , -1.80552, inside=1
__ 1 , 3 , 0, 0, 0.0333333, 
__ 2, -0.5, 1, 
__ -0.5, -0.5, -0.05, 
__ 2, 2, -0.05, 
__ -0.5, 2, 1, 
__ dp = 0.0716477 , 1.80552, inside=1
inside = 1
nijso, considering vertex  = 2
__ 0 , 0 , 0.333333, 0, 0.0333333, 
__ -0.5, -0.5, -0.05, 
__ 2, -0.5, -0.05, 
__ 2, 2, -0.05, 
__ 2, -0.5, 1, 
__ dp = -1.66667 , -2.5, inside=1
__ 0 , 1 , 0.333333, 0, 0.0333333, 
__ 2, -0.5, -0.05, 
__ 2, 2, -0.05, 
__ 2, -0.5, 1, 
__ -0.5, -0.5, -0.05, 
__ dp = 0.0487204 , 0.90276, inside=1
__ 0 , 2 , 0.333333, 0, 0.0333333, 
__ 2, 2, -0.05, 
__ 2, -0.5, 1, 
__ -0.5, -0.5, -0.05, 
__ 2, -0.5, -0.05, 
__ dp = -0.5 , -2.5, inside=1
__ 0 , 3 , 0.333333, 0, 0.0333333, 
__ 2, -0.5, 1, 
__ -0.5, -0.5, -0.05, 
__ 2, -0.5, -0.05, 
__ 2, 2, -0.05, 
__ dp = 0.0833333 , 1.05, inside=1
inside = 1
nijso, considering vertex  = 3
__ 0 , 0 , 0.333333, 0, 0, 
__ -0.5, -0.5, -0.05, 
__ 2, -0.5, -0.05, 
__ 2, 2, -0.05, 
__ 2, -0.5, 1, 
__ dp = -1.66667 , -2.5, inside=1
__ 0 , 1 , 0.333333, 0, 0, 
__ 2, -0.5, -0.05, 
__ 2, 2, -0.05, 
__ 2, -0.5, 1, 
__ -0.5, -0.5, -0.05, 
__ dp = 0.0773795 , 0.90276, inside=1
__ 0 , 2 , 0.333333, 0, 0, 
__ 2, 2, -0.05, 
__ 2, -0.5, 1, 
__ -0.5, -0.5, -0.05, 
__ 2, -0.5, -0.05, 
__ dp = -0.5 , -2.5, inside=1
__ 0 , 3 , 0.333333, 0, 0, 
__ 2, -0.5, 1, 
__ -0.5, -0.5, -0.05, 
__ 2, -0.5, -0.05, 
__ 2, 2, -0.05, 
__ dp = 0.05 , 1.05, inside=1
inside = 1
nijso, considering vertex  = 4
__ 0 , 0 , 0, 0, 0.0666667, 
__ -0.5, -0.5, -0.05, 
__ 2, -0.5, -0.05, 
__ 2, 2, -0.05, 
__ 2, -0.5, 1, 
__ dp = -2 , -2.5, inside=1
__ 0 , 1 , 0, 0, 0.0666667, 
__ 2, -0.5, -0.05, 
__ 2, 2, -0.05, 
__ 2, -0.5, 1, 
__ -0.5, -0.5, -0.05, 
__ dp = -0.100307 , 0.90276, inside=0
__ 0 , 2 , 0, 0, 0.0666667, 
__ 2, 2, -0.05, 
__ 2, -0.5, 1, 
__ -0.5, -0.5, -0.05, 
__ 2, -0.5, -0.05, 
__ dp = -0.5 , -2.5, inside=0
__ 0 , 3 , 0, 0, 0.0666667, 
__ 2, -0.5, 1, 
__ -0.5, -0.5, -0.05, 
__ 2, -0.5, -0.05, 
__ 2, 2, -0.05, 
__ dp = 0.116667 , 1.05, inside=0
__ 1 , 0 , 0, 0, 0.0666667, 
__ -0.5, -0.5, -0.05, 
__ 2, 2, -0.05, 
__ -0.5, 2, 1, 
__ 2, -0.5, 1, 
__ dp = -1.34411 , -1.80552, inside=1
__ 1 , 1 , 0, 0, 0.0666667, 
__ 2, 2, -0.05, 
__ -0.5, 2, 1, 
__ 2, -0.5, 1, 
__ -0.5, -0.5, -0.05, 
__ dp = 0.260797 , 1.80552, inside=1
__ 1 , 2 , 0, 0, 0.0666667, 
__ -0.5, 2, 1, 
__ 2, -0.5, 1, 
__ -0.5, -0.5, -0.05, 
__ 2, 2, -0.05, 
__ dp = -0.100307 , -1.80552, inside=1
__ 1 , 3 , 0, 0, 0.0666667, 
__ 2, -0.5, 1, 
__ -0.5, -0.5, -0.05, 
__ 2, 2, -0.05, 
__ -0.5, 2, 1, 
__ dp = 0.100307 , 1.80552, inside=1
inside = 1
nijso, considering vertex  = 5
__ 0 , 0 , 0.333333, 0, 0.0666667, 
__ -0.5, -0.5, -0.05, 
__ 2, -0.5, -0.05, 
__ 2, 2, -0.05, 
__ 2, -0.5, 1, 
__ dp = -1.66667 , -2.5, inside=1
__ 0 , 1 , 0.333333, 0, 0.0666667, 
__ 2, -0.5, -0.05, 
__ 2, 2, -0.05, 
__ 2, -0.5, 1, 
__ -0.5, -0.5, -0.05, 
__ dp = 0.0200613 , 0.90276, inside=1
__ 0 , 2 , 0.333333, 0, 0.0666667, 
__ 2, 2, -0.05, 
__ 2, -0.5, 1, 
__ -0.5, -0.5, -0.05, 
__ 2, -0.5, -0.05, 
__ dp = -0.5 , -2.5, inside=1
__ 0 , 3 , 0.333333, 0, 0.0666667, 
__ 2, -0.5, 1, 
__ -0.5, -0.5, -0.05, 
__ 2, -0.5, -0.05, 
__ 2, 2, -0.05, 
__ dp = 0.116667 , 1.05, inside=1
inside = 1
nijso, considering vertex  = 6
__ 0 , 0 , 0, 0, 0.1, 
__ -0.5, -0.5, -0.05, 
__ 2, -0.5, -0.05, 
__ 2, 2, -0.05, 
__ 2, -0.5, 1, 
__ dp = -2 , -2.5, inside=1
__ 0 , 1 , 0, 0, 0.1, 
__ 2, -0.5, -0.05, 
__ 2, 2, -0.05, 
__ 2, -0.5, 1, 
__ -0.5, -0.5, -0.05, 
__ dp = -0.128966 , 0.90276, inside=0
__ 0 , 2 , 0, 0, 0.1, 
__ 2, 2, -0.05, 
__ 2, -0.5, 1, 
__ -0.5, -0.5, -0.05, 
__ 2, -0.5, -0.05, 
__ dp = -0.5 , -2.5, inside=0
__ 0 , 3 , 0, 0, 0.1, 
__ 2, -0.5, 1, 
__ -0.5, -0.5, -0.05, 
__ 2, -0.5, -0.05, 
__ 2, 2, -0.05, 
__ dp = 0.15 , 1.05, inside=0
__ 1 , 0 , 0, 0, 0.1, 
__ -0.5, -0.5, -0.05, 
__ 2, 2, -0.05, 
__ -0.5, 2, 1, 
__ 2, -0.5, 1, 
__ dp = -1.31545 , -1.80552, inside=1
__ 1 , 1 , 0, 0, 0.1, 
__ 2, 2, -0.05, 
__ -0.5, 2, 1, 
__ 2, -0.5, 1, 
__ -0.5, -0.5, -0.05, 
__ dp = 0.232138 , 1.80552, inside=1
__ 1 , 2 , 0, 0, 0.1, 
__ -0.5, 2, 1, 
__ 2, -0.5, 1, 
__ -0.5, -0.5, -0.05, 
__ 2, 2, -0.05, 
__ dp = -0.128966 , -1.80552, inside=1
__ 1 , 3 , 0, 0, 0.1, 
__ 2, -0.5, 1, 
__ -0.5, -0.5, -0.05, 
__ 2, 2, -0.05, 
__ -0.5, 2, 1, 
__ dp = 0.128966 , 1.80552, inside=1
inside = 1
nijso, considering vertex  = 7
__ 0 , 0 , 0.333333, 0, 0.1, 
__ -0.5, -0.5, -0.05, 
__ 2, -0.5, -0.05, 
__ 2, 2, -0.05, 
__ 2, -0.5, 1, 
__ dp = -1.66667 , -2.5, inside=1
__ 0 , 1 , 0.333333, 0, 0.1, 
__ 2, -0.5, -0.05, 
__ 2, 2, -0.05, 
__ 2, -0.5, 1, 
__ -0.5, -0.5, -0.05, 
__ dp = -0.00859772 , 0.90276, inside=0
__ 0 , 2 , 0.333333, 0, 0.1, 
__ 2, 2, -0.05, 
__ 2, -0.5, 1, 
__ -0.5, -0.5, -0.05, 
__ 2, -0.5, -0.05, 
__ dp = -0.5 , -2.5, inside=0
__ 0 , 3 , 0.333333, 0, 0.1, 
__ 2, -0.5, 1, 
__ -0.5, -0.5, -0.05, 
__ 2, -0.5, -0.05, 
__ 2, 2, -0.05, 
__ dp = 0.15 , 1.05, inside=0
__ 1 , 0 , 0.333333, 0, 0.1, 
__ -0.5, -0.5, -0.05, 
__ 2, 2, -0.05, 
__ -0.5, 2, 1, 
__ 2, -0.5, 1, 
__ dp = -1.19508 , -1.80552, inside=1
__ 1 , 1 , 0.333333, 0, 0.1, 
__ 2, 2, -0.05, 
__ -0.5, 2, 1, 
__ 2, -0.5, 1, 
__ -0.5, -0.5, -0.05, 
__ dp = 0.352506 , 1.80552, inside=1
__ 1 , 2 , 0.333333, 0, 0.1, 
__ -0.5, 2, 1, 
__ 2, -0.5, 1, 
__ -0.5, -0.5, -0.05, 
__ 2, 2, -0.05, 
__ dp = -0.00859772 , -1.80552, inside=1
__ 1 , 3 , 0.333333, 0, 0.1, 
__ 2, -0.5, 1, 
__ -0.5, -0.5, -0.05, 
__ 2, 2, -0.05, 
__ -0.5, 2, 1, 
__ dp = 0.249334 , 1.80552, inside=1
inside = 1
nijso, considering vertex  = 8
__ 0 , 0 , 0.666667, 0, 0.0333333, 
__ -0.5, -0.5, -0.05, 
__ 2, -0.5, -0.05, 
__ 2, 2, -0.05, 
__ 2, -0.5, 1, 
__ dp = -1.33333 , -2.5, inside=1
__ 0 , 1 , 0.666667, 0, 0.0333333, 
__ 2, -0.5, -0.05, 
__ 2, 2, -0.05, 
__ 2, -0.5, 1, 
__ -0.5, -0.5, -0.05, 
__ dp = 0.169088 , 0.90276, inside=1
__ 0 , 2 , 0.666667, 0, 0.0333333, 
__ 2, 2, -0.05, 
__ 2, -0.5, 1, 
__ -0.5, -0.5, -0.05, 
__ 2, -0.5, -0.05, 
__ dp = -0.5 , -2.5, inside=1
__ 0 , 3 , 0.666667, 0, 0.0333333, 
__ 2, -0.5, 1, 
__ -0.5, -0.5, -0.05, 
__ 2, -0.5, -0.05, 
__ 2, 2, -0.05, 
__ dp = 0.0833333 , 1.05, inside=1
inside = 1
nijso, considering vertex  = 9
__ 0 , 0 , 0.666667, 0, 0, 
__ -0.5, -0.5, -0.05, 
__ 2, -0.5, -0.05, 
__ 2, 2, -0.05, 
__ 2, -0.5, 1, 
__ dp = -1.33333 , -2.5, inside=1
__ 0 , 1 , 0.666667, 0, 0, 
__ 2, -0.5, -0.05, 
__ 2, 2, -0.05, 
__ 2, -0.5, 1, 
__ -0.5, -0.5, -0.05, 
__ dp = 0.197748 , 0.90276, inside=1
__ 0 , 2 , 0.666667, 0, 0, 
__ 2, 2, -0.05, 
__ 2, -0.5, 1, 
__ -0.5, -0.5, -0.05, 
__ 2, -0.5, -0.05, 
__ dp = -0.5 , -2.5, inside=1
__ 0 , 3 , 0.666667, 0, 0, 
__ 2, -0.5, 1, 
__ -0.5, -0.5, -0.05, 
__ 2, -0.5, -0.05, 
__ 2, 2, -0.05, 
__ dp = 0.05 , 1.05, inside=1
inside = 1
nijso, considering vertex  = 10
__ 0 , 0 , 0.666667, 0, 0.0666667, 
__ -0.5, -0.5, -0.05, 
__ 2, -0.5, -0.05, 
__ 2, 2, -0.05, 
__ 2, -0.5, 1, 
__ dp = -1.33333 , -2.5, inside=1
__ 0 , 1 , 0.666667, 0, 0.0666667, 
__ 2, -0.5, -0.05, 
__ 2, 2, -0.05, 
__ 2, -0.5, 1, 
__ -0.5, -0.5, -0.05, 
__ dp = 0.140429 , 0.90276, inside=1
__ 0 , 2 , 0.666667, 0, 0.0666667, 
__ 2, 2, -0.05, 
__ 2, -0.5, 1, 
__ -0.5, -0.5, -0.05, 
__ 2, -0.5, -0.05, 
__ dp = -0.5 , -2.5, inside=1
__ 0 , 3 , 0.666667, 0, 0.0666667, 
__ 2, -0.5, 1, 
__ -0.5, -0.5, -0.05, 
__ 2, -0.5, -0.05, 
__ 2, 2, -0.05, 
__ dp = 0.116667 , 1.05, inside=1
inside = 1
nijso, considering vertex  = 11
__ 0 , 0 , 0.666667, 0, 0.1, 
__ -0.5, -0.5, -0.05, 
__ 2, -0.5, -0.05, 
__ 2, 2, -0.05, 
__ 2, -0.5, 1, 
__ dp = -1.33333 , -2.5, inside=1
__ 0 , 1 , 0.666667, 0, 0.1, 
__ 2, -0.5, -0.05, 
__ 2, 2, -0.05, 
__ 2, -0.5, 1, 
__ -0.5, -0.5, -0.05, 
__ dp = 0.11177 , 0.90276, inside=1
__ 0 , 2 , 0.666667, 0, 0.1, 
__ 2, 2, -0.05, 
__ 2, -0.5, 1, 
__ -0.5, -0.5, -0.05, 
__ 2, -0.5, -0.05, 
__ dp = -0.5 , -2.5, inside=1
__ 0 , 3 , 0.666667, 0, 0.1, 
__ 2, -0.5, 1, 
__ -0.5, -0.5, -0.05, 
__ 2, -0.5, -0.05, 
__ 2, 2, -0.05, 
__ dp = 0.15 , 1.05, inside=1
inside = 1
nijso, considering vertex  = 12
__ 0 , 0 , 1, 0, 0.0333333, 
__ -0.5, -0.5, -0.05, 
__ 2, -0.5, -0.05, 
__ 2, 2, -0.05, 
__ 2, -0.5, 1, 
__ dp = -1 , -2.5, inside=1
[...]
nijso: all markers = 4 wall_top
nijso: symmetry_bottom inlet
nijso: symmetry_sides inlet
nijso: inlet inlet
nijso: get the marker tagbound
nijso: all markers = 0 symmetry_bottom
nijso: all markers = 1 symmetry_sides
nijso: all markers = 2 inlet
nijso: all markers = 3 outlet
nijso: all markers = 4 wall_top
nijso: symmetry_bottom inlet
nijso: symmetry_sides inlet
nijso: inlet inlet
nijso: get the marker tagbound
nijso: all markers = 0 symmetry_bottom
nijso: all markers = 1 symmetry_sides
nijso: all markers = 2 inlet
nijso: all markers = 3 outlet
nijso: all markers = 4 wall_top
nijso: symmetry_bottom inlet
nijso: symmetry_sides inlet
nijso: inlet inlet
nijso: get the marker tagbound
nijso: all markers = 0 symmetry_bottom
nijso: all markers = 1 symmetry_sides
nijso: all markers = 2 inlet
nijso: all markers = 3 outlet
nijso: all markers = 4 wall_top
nijso: symmetry_bottom inlet
nijso: symmetry_sides inlet
nijso: inlet inlet
nijso: get the marker tagbound
nijso: all markers = 0 symmetry_bottom
nijso: all markers = 1 symmetry_sides
nijso: all markers = 2 inlet
nijso: all markers = 3 outlet
nijso: all markers = 4 wall_top
nijso: symmetry_bottom inlet
nijso: symmetry_sides inlet
nijso: inlet inlet
nijso: get the marker tagbound
nijso: all markers = 0 symmetry_bottom
nijso: all markers = 1 symmetry_sides
nijso: all markers = 2 inlet
nijso: all markers = 3 outlet
nijso: all markers = 4 wall_top
nijso: symmetry_bottom inlet
nijso: symmetry_sides inlet
nijso: inlet inlet
nijso: get the marker tagbound
nijso: all markers = 0 symmetry_bottom
nijso: all markers = 1 symmetry_sides
nijso: all markers = 2 inlet
nijso: all markers = 3 outlet
nijso: all markers = 4 wall_top
nijso: symmetry_bottom inlet
nijso: symmetry_sides inlet
nijso: inlet inlet
nijso: get the marker tagbound
nijso: all markers = 0 symmetry_bottom
nijso: all markers = 1 symmetry_sides
nijso: all markers = 2 inlet
nijso: all markers = 3 outlet
nijso: all markers = 4 wall_top
nijso: symmetry_bottom wall_top
nijso: symmetry_sides wall_top
nijso: inlet wall_top
nijso: outlet wall_top
nijso: wall_top wall_top
nijso: get the marker tagbound
nijso: all markers = 0 symmetry_bottom
nijso: all markers = 1 symmetry_sides
nijso: all markers = 2 inlet
nijso: all markers = 3 outlet
nijso: all markers = 4 wall_top
nijso: symmetry_bottom wall_top
nijso: symmetry_sides wall_top
nijso: inlet wall_top
nijso: outlet wall_top
nijso: wall_top wall_top
nijso: get the marker tagbound
nijso: all markers = 0 symmetry_bottom
nijso: all markers = 1 symmetry_sides
nijso: all markers = 2 inlet
nijso: all markers = 3 outlet
nijso: all markers = 4 wall_top
nijso: symmetry_bottom wall_top
nijso: symmetry_sides wall_top
nijso: inlet wall_top
nijso: outlet wall_top
nijso: wall_top wall_top
nijso: get the marker tagbound
nijso: all markers = 0 symmetry_bottom
nijso: all markers = 1 symmetry_sides
nijso: all markers = 2 inlet
nijso: all markers = 3 outlet
nijso: all markers = 4 wall_top
nijso: symmetry_bottom wall_top
nijso: symmetry_sides wall_top
nijso: inlet wall_top
nijso: outlet wall_top
nijso: wall_top wall_top
nijso: get the marker tagbound
nijso: all markers = 0 symmetry_bottom
nijso: all markers = 1 symmetry_sides
nijso: all markers = 2 inlet
nijso: all markers = 3 outlet
nijso: all markers = 4 wall_top
nijso: symmetry_bottom wall_top
nijso: symmetry_sides wall_top
nijso: inlet wall_top
nijso: outlet wall_top
nijso: wall_top wall_top
nijso: get the marker tagbound
nijso: all markers = 0 symmetry_bottom
nijso: all markers = 1 symmetry_sides
nijso: all markers = 2 inlet
nijso: all markers = 3 outlet
nijso: all markers = 4 wall_top
nijso: symmetry_bottom wall_top
nijso: symmetry_sides wall_top
nijso: inlet wall_top
nijso: outlet wall_top
nijso: wall_top wall_top
nijso: get the marker tagbound
nijso: all markers = 0 symmetry_bottom
nijso: all markers = 1 symmetry_sides
nijso: all markers = 2 inlet
nijso: all markers = 3 outlet
nijso: all markers = 4 wall_top
nijso: symmetry_bottom wall_top
nijso: symmetry_sides wall_top
nijso: inlet wall_top
nijso: outlet wall_top
nijso: wall_top wall_top
nijso: get the marker tagbound
nijso: all markers = 0 symmetry_bottom
nijso: all markers = 1 symmetry_sides
nijso: all markers = 2 inlet
nijso: all markers = 3 outlet
nijso: all markers = 4 wall_top
nijso: symmetry_bottom wall_top
nijso: symmetry_sides wall_top
nijso: inlet wall_top
nijso: outlet wall_top
nijso: wall_top wall_top
nijso: get the marker tagbound
nijso: all markers = 0 symmetry_bottom
nijso: all markers = 1 symmetry_sides
nijso: all markers = 2 inlet
nijso: all markers = 3 outlet
nijso: all markers = 4 wall_top
nijso: symmetry_bottom wall_top
nijso: symmetry_sides wall_top
nijso: inlet wall_top
nijso: outlet wall_top
nijso: wall_top wall_top
nijso: get the marker tagbound
nijso: all markers = 0 symmetry_bottom
nijso: all markers = 1 symmetry_sides
nijso: all markers = 2 inlet
nijso: all markers = 3 outlet
nijso: all markers = 4 wall_top
nijso: symmetry_bottom wall_top
nijso: symmetry_sides wall_top
nijso: inlet wall_top
nijso: outlet wall_top
nijso: wall_top wall_top
nijso: get the marker tagbound
nijso: all markers = 0 symmetry_bottom
nijso: all markers = 1 symmetry_sides
nijso: all markers = 2 inlet
nijso: all markers = 3 outlet
nijso: all markers = 4 wall_top
nijso: symmetry_bottom wall_top
nijso: symmetry_sides wall_top
nijso: inlet wall_top
nijso: outlet wall_top
nijso: wall_top wall_top
nijso: get the marker tagbound
nijso: all markers = 0 symmetry_bottom
nijso: all markers = 1 symmetry_sides
nijso: all markers = 2 inlet
nijso: all markers = 3 outlet
nijso: all markers = 4 wall_top
nijso: symmetry_bottom wall_top
nijso: symmetry_sides wall_top
nijso: inlet wall_top
nijso: outlet wall_top
nijso: wall_top wall_top
nijso: get the marker tagbound
nijso: all markers = 0 symmetry_bottom
nijso: all markers = 1 symmetry_sides
nijso: all markers = 2 inlet
nijso: all markers = 3 outlet
nijso: all markers = 4 wall_top
nijso: symmetry_bottom wall_top
nijso: symmetry_sides wall_top
nijso: inlet wall_top
nijso: outlet wall_top
nijso: wall_top wall_top
nijso: get the marker tagbound
nijso: all markers = 0 symmetry_bottom
nijso: all markers = 1 symmetry_sides
nijso: all markers = 2 inlet
nijso: all markers = 3 outlet
nijso: all markers = 4 wall_top
nijso: symmetry_bottom wall_top
nijso: symmetry_sides wall_top
nijso: inlet wall_top
nijso: outlet wall_top
nijso: wall_top wall_top
nijso: get the marker tagbound
nijso: all markers = 0 symmetry_bottom
nijso: all markers = 1 symmetry_sides
nijso: all markers = 2 inlet
nijso: all markers = 3 outlet
nijso: all markers = 4 wall_top
nijso: symmetry_bottom wall_top
nijso: symmetry_sides wall_top
nijso: inlet wall_top
nijso: outlet wall_top
nijso: wall_top wall_top
nijso: get the marker tagbound
nijso: all markers = 0 symmetry_bottom
nijso: all markers = 1 symmetry_sides
nijso: all markers = 2 inlet
nijso: all markers = 3 outlet
nijso: all markers = 4 wall_top
nijso: symmetry_bottom wall_top
nijso: symmetry_sides wall_top
nijso: inlet wall_top
nijso: outlet wall_top
nijso: wall_top wall_top
nijso: get the marker tagbound
nijso: all markers = 0 symmetry_bottom
nijso: all markers = 1 symmetry_sides
nijso: all markers = 2 inlet
nijso: all markers = 3 outlet
nijso: all markers = 4 wall_top
nijso: symmetry_bottom symmetry_bottom
nijso: get the marker tagbound
nijso: all markers = 0 symmetry_bottom
nijso: all markers = 1 symmetry_sides
nijso: all markers = 2 inlet
nijso: all markers = 3 outlet
nijso: all markers = 4 wall_top
nijso: symmetry_bottom symmetry_bottom
nijso: get the marker tagbound
nijso: all markers = 0 symmetry_bottom
nijso: all markers = 1 symmetry_sides
nijso: all markers = 2 inlet
nijso: all markers = 3 outlet
nijso: all markers = 4 wall_top
nijso: symmetry_bottom symmetry_bottom
nijso: get the marker tagbound
nijso: all markers = 0 symmetry_bottom
nijso: all markers = 1 symmetry_sides
nijso: all markers = 2 inlet
nijso: all markers = 3 outlet
nijso: all markers = 4 wall_top
nijso: symmetry_bottom symmetry_bottom
nijso: get the marker tagbound
nijso: all markers = 0 symmetry_bottom
nijso: all markers = 1 symmetry_sides
nijso: all markers = 2 inlet
nijso: all markers = 3 outlet
nijso: all markers = 4 wall_top
nijso: symmetry_bottom symmetry_bottom
nijso: get the marker tagbound
nijso: all markers = 0 symmetry_bottom
nijso: all markers = 1 symmetry_sides
nijso: all markers = 2 inlet
nijso: all markers = 3 outlet
nijso: all markers = 4 wall_top
nijso: symmetry_bottom symmetry_bottom
nijso: get the marker tagbound
nijso: all markers = 0 symmetry_bottom
nijso: all markers = 1 symmetry_sides
nijso: all markers = 2 inlet
nijso: all markers = 3 outlet
nijso: all markers = 4 wall_top
nijso: symmetry_bottom symmetry_bottom
nijso: get the marker tagbound
nijso: all markers = 0 symmetry_bottom
nijso: all markers = 1 symmetry_sides
nijso: all markers = 2 inlet
nijso: all markers = 3 outlet
nijso: all markers = 4 wall_top
nijso: symmetry_bottom symmetry_bottom
nijso: get the marker tagbound
nijso: all markers = 0 symmetry_bottom
nijso: all markers = 1 symmetry_sides
nijso: all markers = 2 inlet
nijso: all markers = 3 outlet
nijso: all markers = 4 wall_top
nijso: symmetry_bottom symmetry_bottom
nijso: get the marker tagbound
nijso: all markers = 0 symmetry_bottom
nijso: all markers = 1 symmetry_sides
nijso: all markers = 2 inlet
nijso: all markers = 3 outlet
nijso: all markers = 4 wall_top
nijso: symmetry_bottom symmetry_bottom
nijso: get the marker tagbound
nijso: all markers = 0 symmetry_bottom
nijso: all markers = 1 symmetry_sides
nijso: all markers = 2 inlet
nijso: all markers = 3 outlet
nijso: all markers = 4 wall_top
nijso: symmetry_bottom symmetry_bottom
nijso: get the marker tagbound
nijso: all markers = 0 symmetry_bottom
nijso: all markers = 1 symmetry_sides
nijso: all markers = 2 inlet
nijso: all markers = 3 outlet
nijso: all markers = 4 wall_top
nijso: symmetry_bottom symmetry_bottom
nijso: get the marker tagbound
nijso: all markers = 0 symmetry_bottom
nijso: all markers = 1 symmetry_sides
nijso: all markers = 2 inlet
nijso: all markers = 3 outlet
nijso: all markers = 4 wall_top
nijso: symmetry_bottom symmetry_bottom
nijso: get the marker tagbound
nijso: all markers = 0 symmetry_bottom
nijso: all markers = 1 symmetry_sides
nijso: all markers = 2 inlet
nijso: all markers = 3 outlet
nijso: all markers = 4 wall_top
nijso: symmetry_bottom symmetry_bottom
nijso: get the marker tagbound
nijso: all markers = 0 symmetry_bottom
nijso: all markers = 1 symmetry_sides
nijso: all markers = 2 inlet
nijso: all markers = 3 outlet
nijso: all markers = 4 wall_top
nijso: symmetry_bottom symmetry_bottom
nijso: get the marker tagbound
nijso: all markers = 0 symmetry_bottom
nijso: all markers = 1 symmetry_sides
nijso: all markers = 2 inlet
nijso: all markers = 3 outlet
nijso: all markers = 4 wall_top
nijso: symmetry_bottom symmetry_bottom
nijso: get the marker tagbound
nijso: all markers = 0 symmetry_bottom
nijso: all markers = 1 symmetry_sides
nijso: all markers = 2 inlet
nijso: all markers = 3 outlet
nijso: all markers = 4 wall_top
nijso: symmetry_bottom symmetry_sides
nijso: symmetry_sides symmetry_sides
nijso: get the marker tagbound
nijso: all markers = 0 symmetry_bottom
nijso: all markers = 1 symmetry_sides
nijso: all markers = 2 inlet
nijso: all markers = 3 outlet
nijso: all markers = 4 wall_top
nijso: symmetry_bottom symmetry_sides
nijso: symmetry_sides symmetry_sides
nijso: get the marker tagbound
nijso: all markers = 0 symmetry_bottom
nijso: all markers = 1 symmetry_sides
nijso: all markers = 2 inlet
nijso: all markers = 3 outlet
nijso: all markers = 4 wall_top
nijso: symmetry_bottom symmetry_sides
nijso: symmetry_sides symmetry_sides
nijso: get the marker tagbound
nijso: all markers = 0 symmetry_bottom
nijso: all markers = 1 symmetry_sides
nijso: all markers = 2 inlet
nijso: all markers = 3 outlet
nijso: all markers = 4 wall_top
nijso: symmetry_bottom symmetry_sides
nijso: symmetry_sides symmetry_sides
nijso: get the marker tagbound
nijso: all markers = 0 symmetry_bottom
nijso: all markers = 1 symmetry_sides
nijso: all markers = 2 inlet
nijso: all markers = 3 outlet
nijso: all markers = 4 wall_top
nijso: symmetry_bottom symmetry_sides
nijso: symmetry_sides symmetry_sides
nijso: get the marker tagbound
nijso: all markers = 0 symmetry_bottom
nijso: all markers = 1 symmetry_sides
nijso: all markers = 2 inlet
nijso: all markers = 3 outlet
nijso: all markers = 4 wall_top
nijso: symmetry_bottom symmetry_sides
nijso: symmetry_sides symmetry_sides
nijso: get the marker tagbound
nijso: all markers = 0 symmetry_bottom
nijso: all markers = 1 symmetry_sides
nijso: all markers = 2 inlet
nijso: all markers = 3 outlet
nijso: all markers = 4 wall_top
nijso: symmetry_bottom symmetry_sides
nijso: symmetry_sides symmetry_sides
nijso: get the marker tagbound
nijso: all markers = 0 symmetry_bottom
nijso: all markers = 1 symmetry_sides
nijso: all markers = 2 inlet
nijso: all markers = 3 outlet
nijso: all markers = 4 wall_top
nijso: symmetry_bottom symmetry_sides
nijso: symmetry_sides symmetry_sides
nijso: get the marker tagbound
nijso: all markers = 0 symmetry_bottom
nijso: all markers = 1 symmetry_sides
nijso: all markers = 2 inlet
nijso: all markers = 3 outlet
nijso: all markers = 4 wall_top
nijso: symmetry_bottom symmetry_sides
nijso: symmetry_sides symmetry_sides
nijso: get the marker tagbound
nijso: all markers = 0 symmetry_bottom
nijso: all markers = 1 symmetry_sides
nijso: all markers = 2 inlet
nijso: all markers = 3 outlet
nijso: all markers = 4 wall_top
nijso: symmetry_bottom symmetry_sides
nijso: symmetry_sides symmetry_sides
nijso: get the marker tagbound
nijso: all markers = 0 symmetry_bottom
nijso: all markers = 1 symmetry_sides
nijso: all markers = 2 inlet
nijso: all markers = 3 outlet
nijso: all markers = 4 wall_top
nijso: symmetry_bottom symmetry_sides
nijso: symmetry_sides symmetry_sides
nijso: get the marker tagbound
nijso: all markers = 0 symmetry_bottom
nijso: all markers = 1 symmetry_sides
nijso: all markers = 2 inlet
nijso: all markers = 3 outlet
nijso: all markers = 4 wall_top
nijso: symmetry_bottom symmetry_sides
nijso: symmetry_sides symmetry_sides
nijso: get the marker tagbound
nijso: all markers = 0 symmetry_bottom
nijso: all markers = 1 symmetry_sides
nijso: all markers = 2 inlet
nijso: all markers = 3 outlet
nijso: all markers = 4 wall_top
nijso: symmetry_bottom symmetry_sides
nijso: symmetry_sides symmetry_sides
nijso: get the marker tagbound
nijso: all markers = 0 symmetry_bottom
nijso: all markers = 1 symmetry_sides
nijso: all markers = 2 inlet
nijso: all markers = 3 outlet
nijso: all markers = 4 wall_top
nijso: symmetry_bottom symmetry_sides
nijso: symmetry_sides symmetry_sides
nijso: get the marker tagbound
nijso: all markers = 0 symmetry_bottom
nijso: all markers = 1 symmetry_sides
nijso: all markers = 2 inlet
nijso: all markers = 3 outlet
nijso: all markers = 4 wall_top
nijso: symmetry_bottom symmetry_sides
nijso: symmetry_sides symmetry_sides
nijso: get the marker tagbound
nijso: all markers = 0 symmetry_bottom
nijso: all markers = 1 symmetry_sides
nijso: all markers = 2 inlet
nijso: all markers = 3 outlet
nijso: all markers = 4 wall_top
nijso: symmetry_bottom symmetry_sides
nijso: symmetry_sides symmetry_sides
nijso: get the marker tagbound
nijso: all markers = 0 symmetry_bottom
nijso: all markers = 1 symmetry_sides
nijso: all markers = 2 inlet
nijso: all markers = 3 outlet
nijso: all markers = 4 wall_top
nijso: symmetry_bottom symmetry_sides
nijso: symmetry_sides symmetry_sides
nijso: get the marker tagbound
nijso: all markers = 0 symmetry_bottom
nijso: all markers = 1 symmetry_sides
nijso: all markers = 2 inlet
nijso: all markers = 3 outlet
nijso: all markers = 4 wall_top
nijso: symmetry_bottom symmetry_sides
nijso: symmetry_sides symmetry_sides
nijso: get the marker tagbound
nijso: all markers = 0 symmetry_bottom
nijso: all markers = 1 symmetry_sides
nijso: all markers = 2 inlet
nijso: all markers = 3 outlet
nijso: all markers = 4 wall_top
nijso: symmetry_bottom symmetry_sides
nijso: symmetry_sides symmetry_sides
nijso: get the marker tagbound
nijso: all markers = 0 symmetry_bottom
nijso: all markers = 1 symmetry_sides
nijso: all markers = 2 inlet
nijso: all markers = 3 outlet
nijso: all markers = 4 wall_top
nijso: symmetry_bottom symmetry_sides
nijso: symmetry_sides symmetry_sides
nijso: get the marker tagbound
nijso: all markers = 0 symmetry_bottom
nijso: all markers = 1 symmetry_sides
nijso: all markers = 2 inlet
nijso: all markers = 3 outlet
nijso: all markers = 4 wall_top
nijso: symmetry_bottom symmetry_sides
nijso: symmetry_sides symmetry_sides
nijso: get the marker tagbound
nijso: all markers = 0 symmetry_bottom
nijso: all markers = 1 symmetry_sides
nijso: all markers = 2 inlet
nijso: all markers = 3 outlet
nijso: all markers = 4 wall_top
nijso: symmetry_bottom symmetry_sides
nijso: symmetry_sides symmetry_sides
nijso: get the marker tagbound
nijso: all markers = 0 symmetry_bottom
nijso: all markers = 1 symmetry_sides
nijso: all markers = 2 inlet
nijso: all markers = 3 outlet
nijso: all markers = 4 wall_top
nijso: symmetry_bottom symmetry_sides
nijso: symmetry_sides symmetry_sides
nijso: get the marker tagbound
nijso: all markers = 0 symmetry_bottom
nijso: all markers = 1 symmetry_sides
nijso: all markers = 2 inlet
nijso: all markers = 3 outlet
nijso: all markers = 4 wall_top
nijso: symmetry_bottom symmetry_sides
nijso: symmetry_sides symmetry_sides
nijso: get the marker tagbound
nijso: all markers = 0 symmetry_bottom
nijso: all markers = 1 symmetry_sides
nijso: all markers = 2 inlet
nijso: all markers = 3 outlet
nijso: all markers = 4 wall_top
nijso: symmetry_bottom symmetry_sides
nijso: symmetry_sides symmetry_sides
nijso: get the marker tagbound
nijso: all markers = 0 symmetry_bottom
nijso: all markers = 1 symmetry_sides
nijso: all markers = 2 inlet
nijso: all markers = 3 outlet
nijso: all markers = 4 wall_top
nijso: symmetry_bottom symmetry_sides
nijso: symmetry_sides symmetry_sides
nijso: get the marker tagbound
nijso: all markers = 0 symmetry_bottom
nijso: all markers = 1 symmetry_sides
nijso: all markers = 2 inlet
nijso: all markers = 3 outlet
nijso: all markers = 4 wall_top
nijso: symmetry_bottom symmetry_sides
nijso: symmetry_sides symmetry_sides
nijso: get the marker tagbound
nijso: all markers = 0 symmetry_bottom
nijso: all markers = 1 symmetry_sides
nijso: all markers = 2 inlet
nijso: all markers = 3 outlet
nijso: all markers = 4 wall_top
nijso: symmetry_bottom symmetry_sides
nijso: symmetry_sides symmetry_sides
nijso: get the marker tagbound
nijso: all markers = 0 symmetry_bottom
nijso: all markers = 1 symmetry_sides
nijso: all markers = 2 inlet
nijso: all markers = 3 outlet
nijso: all markers = 4 wall_top
nijso: symmetry_bottom symmetry_sides
nijso: symmetry_sides symmetry_sides
nijso: get the marker tagbound
nijso: all markers = 0 symmetry_bottom
nijso: all markers = 1 symmetry_sides
nijso: all markers = 2 inlet
nijso: all markers = 3 outlet
nijso: all markers = 4 wall_top
nijso: symmetry_bottom symmetry_sides
nijso: symmetry_sides symmetry_sides
nijso: get the marker tagbound
nijso: all markers = 0 symmetry_bottom
nijso: all markers = 1 symmetry_sides
nijso: all markers = 2 inlet
nijso: all markers = 3 outlet
nijso: all markers = 4 wall_top
nijso: symmetry_bottom symmetry_sides
nijso: symmetry_sides symmetry_sides
nijso: get the marker tagbound
nijso: all markers = 0 symmetry_bottom
nijso: all markers = 1 symmetry_sides
nijso: all markers = 2 inlet
nijso: all markers = 3 outlet
nijso: all markers = 4 wall_top
nijso: symmetry_bottom symmetry_sides
nijso: symmetry_sides symmetry_sides

------------------------- Solver Postprocessing -------------------------
Deleted CGeometry container.
Deleted CSurfaceMovement class.
Deleted CVolumetricMovement class.
Deleted CConfig container.
Deleted COutput class.

Completed in 0.055040 seconds on 1 core.

------------------------- Exit Success (SU2_DEF) ------------------------

