

nijso : marker tag for heatflux wall : 4


-------------------------------------------------------------------------
|    ___ _   _ ___                                                      |
|   / __| | | |_  )   Release 7.2.1 "Blackbird"                         |
|   \__ \ |_| |/ /                                                      |
|   |___/\___//___|   Suite (Mesh Deformation Code)                     |
|                                                                       |
-------------------------------------------------------------------------
| SU2 Project Website: https://su2code.github.io                        |
|                                                                       |
| The SU2 Project is maintained by the SU2 Foundation                   |
| (http://su2foundation.org)                                            |
-------------------------------------------------------------------------
| Copyright 2012-2021, SU2 Contributors                                 |
|                                                                       |
| SU2 is free software; you can redistribute it and/or                  |
| modify it under the terms of the GNU Lesser General Public            |
| License as published by the Free Software Foundation; either          |
| version 2.1 of the License, or (at your option) any later version.    |
|                                                                       |
| SU2 is distributed in the hope that it will be useful,                |
| but WITHOUT ANY WARRANTY; without even the implied warranty of        |
| MERCHANTABILITY or FITNESS FOR A PARTICULAR PURPOSE. See the GNU      |
| Lesser General Public License for more details.                       |
|                                                                       |
| You should have received a copy of the GNU Lesser General Public      |
| License along with SU2. If not, see <http://www.gnu.org/licenses/>.   |
-------------------------------------------------------------------------


nijso : marker tag for heatflux wall : 4



nijso : marker tag for heatflux wall : 4


----------------- Physical Case Definition ( Zone 0 ) -------------------
Input mesh file name: cube.su2

---------------- Grid deformation parameters ( Zone 0 )  ----------------
Grid deformation using a linear elasticity method.
Setting the FFD box structure.
FFD boxes definition (FFD tag <-> degree <-> coord):
BOX <-> ( 6, 1, 1 ) <-> ( -0.5, -0.5, 0.55, 2, -0.5, 0.55, 2, 2, 0.55, -0.5, 2, 0.55, -0.5, -0.5, 1, 2, -0.5, 1, 2, 2, 1, -0.5, 2, 1 )

-------------------- Output Information ( Zone 0 ) ----------------------
Output mesh file name: mesh_out.su2. 
Cell stiffness scaled by distance to nearest solid surface.

------------- Config File Boundary Information ( Zone 0 ) ---------------
+-----------------------------------------------------------------------+
|                        Marker Type|                        Marker Name|
+-----------------------------------------------------------------------+
|                     Symmetry plane|                    symmetry_bottom|
|                                   |                     symmetry_sides|
+-----------------------------------------------------------------------+
|                     Inlet boundary|                              inlet|
+-----------------------------------------------------------------------+
|                    Outlet boundary|                             outlet|
+-----------------------------------------------------------------------+
|                     Heat flux wall|                           wall_top|
+-----------------------------------------------------------------------+
Three dimensional problem.
64 grid points.
27 volume elements.
5 surface markers.
9 boundary elements in index 0 (Marker = outlet).
nijso: get the marker tagbound
nijso: all markers = 0 symmetry_bottom
nijso: all markers = 1 symmetry_sides
nijso: all markers = 2 inlet
nijso: all markers = 3 outlet
nijso: all markers = 4 wall_top
nijso: symmetry_bottom outlet
nijso: symmetry_sides outlet
nijso: inlet outlet
nijso: outlet outlet
9 boundary elements in index 1 (Marker = inlet).
nijso: get the marker tagbound
nijso: all markers = 0 symmetry_bottom
nijso: all markers = 1 symmetry_sides
nijso: all markers = 2 inlet
nijso: all markers = 3 outlet
nijso: all markers = 4 wall_top
nijso: symmetry_bottom inlet
nijso: symmetry_sides inlet
nijso: inlet inlet
9 boundary elements in index 2 (Marker = wall_top).
nijso: get the marker tagbound
nijso: all markers = 0 symmetry_bottom
nijso: all markers = 1 symmetry_sides
nijso: all markers = 2 inlet
nijso: all markers = 3 outlet
nijso: all markers = 4 wall_top
nijso: symmetry_bottom wall_top
nijso: symmetry_sides wall_top
nijso: inlet wall_top
nijso: outlet wall_top
nijso: wall_top wall_top
9 boundary elements in index 3 (Marker = symmetry_bottom).
nijso: get the marker tagbound
nijso: all markers = 0 symmetry_bottom
nijso: all markers = 1 symmetry_sides
nijso: all markers = 2 inlet
nijso: all markers = 3 outlet
nijso: all markers = 4 wall_top
nijso: symmetry_bottom symmetry_bottom
18 boundary elements in index 4 (Marker = symmetry_sides).
nijso: get the marker tagbound
nijso: all markers = 0 symmetry_bottom
nijso: all markers = 1 symmetry_sides
nijso: all markers = 2 inlet
nijso: all markers = 3 outlet
nijso: all markers = 4 wall_top
nijso: symmetry_bottom symmetry_sides
nijso: symmetry_sides symmetry_sides
27 hexahedra.
nijso: get the marker tagbound
nijso: all markers = 0 symmetry_bottom
nijso: all markers = 1 symmetry_sides
nijso: all markers = 2 inlet
nijso: all markers = 3 outlet
nijso: all markers = 4 wall_top
nijso: symmetry_bottom outlet
nijso: symmetry_sides outlet
nijso: inlet outlet
nijso: outlet outlet
nijso: get the marker tagbound
nijso: all markers = 0 symmetry_bottom
nijso: all markers = 1 symmetry_sides
nijso: all markers = 2 inlet
nijso: all markers = 3 outlet
nijso: all markers = 4 wall_top
nijso: symmetry_bottom inlet
nijso: symmetry_sides inlet
nijso: inlet inlet
nijso: get the marker tagbound
nijso: all markers = 0 symmetry_bottom
nijso: all markers = 1 symmetry_sides
nijso: all markers = 2 inlet
nijso: all markers = 3 outlet
nijso: all markers = 4 wall_top
nijso: symmetry_bottom wall_top
nijso: symmetry_sides wall_top
nijso: inlet wall_top
nijso: outlet wall_top
nijso: wall_top wall_top
nijso: get the marker tagbound
nijso: all markers = 0 symmetry_bottom
nijso: all markers = 1 symmetry_sides
nijso: all markers = 2 inlet
nijso: all markers = 3 outlet
nijso: all markers = 4 wall_top
nijso: symmetry_bottom symmetry_bottom
nijso: get the marker tagbound
nijso: all markers = 0 symmetry_bottom
nijso: all markers = 1 symmetry_sides
nijso: all markers = 2 inlet
nijso: all markers = 3 outlet
nijso: all markers = 4 wall_top
nijso: symmetry_bottom symmetry_sides
nijso: symmetry_sides symmetry_sides

----------------------- Preprocessing computations ----------------------
Setting local point connectivity.
Checking the numerical grid orientation of the interior elements.
All volume elements are correctly orientend.
There has been a re-orientation of 45 QUADRILATERAL surface elements.
Identify edges and vertices.
Setting the bound control volume structure.
Volume of the computational grid: 0.1.
  Info: Ignoring the following volume output fields/groups:
  SOLUTION, PRIMITIVE, RESIDUAL, TIMESTEP
Volume output fields: COORDINATES
  Info: Ignoring the following screen output fields:
  RMS_PRESSURE, RMS_TEMPERATURE, RMS_VELOCITY_X, RMS_NU_TILDE, RMS_TKE, RMS_DISSIPATION, LINSOL_ITER, LINSOL_RESIDUAL
Screen output fields: INNER_ITER, WALL_TIME
History output group(s): 
Ignoring Convergence Field(s): RMS_PRESSURE 
Warning: No (valid) fields chosen for convergence monitoring. Convergence monitoring inactive.
Warning: No (valid) fields chosen for time convergence monitoring. Time convergence monitoring inactive.

--------------------- Surface grid deformation (ZONE 0) -----------------
Performing the deformation of the surface grid.
1 Free Form Deformation boxes.
1 Free Form Deformation nested levels.
FFD box tag: BOX. FFD box level: 0. Degrees: 6, 1, 1.
FFD Blending using Bezier Curves.
Number of parent boxes: 0. Number of child boxes: 0.

----------------- FFD technique (cartesian -> parametric) ---------------
nijso
nijso: setparametriccoord
nijso: set parametric coord
nijso: blending is bezier
nijso, marker = 0 , 1
nijso, considering marker = 0
nijso, considering vertex  = 0
__ 0 , 0 , 1, 0, -0, 
__ -0.5, -0.5, 0.55, 
__ 2, -0.5, 0.55, 
__ 2, 2, 0.55, 
__ 2, -0.5, 1, 
__ dp = -1 , -2.5, inside=1
__ 0 , 1 , 1, 0, -0, 
__ 2, -0.5, 0.55, 
__ 2, 2, 0.55, 
__ 2, -0.5, 1, 
__ -0.5, -0.5, 0.55, 
__ dp = 0.707439 , 0.436092, inside=1
__ 0 , 2 , 1, 0, -0, 
__ 2, 2, 0.55, 
__ 2, -0.5, 1, 
__ -0.5, -0.5, 0.55, 
__ 2, -0.5, 0.55, 
__ dp = -0.5 , -2.5, inside=1
__ 0 , 3 , 1, 0, -0, 
__ 2, -0.5, 1, 
__ -0.5, -0.5, 0.55, 
__ 2, -0.5, 0.55, 
__ 2, 2, 0.55, 
__ dp = -0.55 , 0.45, inside=0
__ 1 , 0 , 1, 0, -0, 
__ -0.5, -0.5, 0.55, 
__ 2, 2, 0.55, 
__ -0.5, 2, 1, 
__ 2, -0.5, 1, 
__ dp = -1.05631 , -0.872185, inside=1
__ 1 , 1 , 1, 0, -0, 
__ 2, 2, 0.55, 
__ -0.5, 2, 1, 
__ 2, -0.5, 1, 
__ -0.5, -0.5, 0.55, 
__ dp = 0.881876 , 0.872185, inside=1
__ 1 , 2 , 1, 0, -0, 
__ -0.5, 2, 1, 
__ 2, -0.5, 1, 
__ -0.5, -0.5, 0.55, 
__ 2, 2, 0.55, 
__ dp = 0.707439 , -0.872185, inside=0
__ 1 , 3 , 1, 0, -0, 
__ 2, -0.5, 1, 
__ -0.5, -0.5, 0.55, 
__ 2, 2, 0.55, 
__ -0.5, 2, 1, 
__ dp = -0.358565 , 0.872185, inside=0
__ 2 , 0 , 1, 0, -0, 
__ -0.5, -0.5, 0.55, 
__ 2, 2, 0.55, 
__ -0.5, 2, 0.55, 
__ -0.5, 2, 1, 
__ dp = -2 , -2.5, inside=1
__ 2 , 1 , 1, 0, -0, 
__ 2, 2, 0.55, 
__ -0.5, 2, 0.55, 
__ -0.5, 2, 1, 
__ -0.5, -0.5, 0.55, 
__ dp = 1.5 , 2.5, inside=1
__ 2 , 2 , 1, 0, -0, 
__ -0.5, 2, 0.55, 
__ -0.5, 2, 1, 
__ -0.5, -0.5, 0.55, 
__ 2, 2, 0.55, 
__ dp = -0.358565 , -0.436092, inside=1
__ 2 , 3 , 1, 0, -0, 
__ -0.5, 2, 1, 
__ -0.5, -0.5, 0.55, 
__ 2, 2, 0.55, 
__ -0.5, 2, 0.55, 
__ dp = -0.55 , 0.45, inside=0
__ 3 , 0 , 1, 0, -0, 
__ -0.5, -0.5, 0.55, 
__ 2, -0.5, 1, 
__ -0.5, 2, 1, 
__ -0.5, -0.5, 1, 
__ dp = -1 , -0.45, inside=1
__ 3 , 1 , 1, 0, -0, 
__ 2, -0.5, 1, 
__ -0.5, 2, 1, 
__ -0.5, -0.5, 1, 
__ -0.5, -0.5, 0.55, 
__ dp = 1.5 , 2.5, inside=1
__ 3 , 2 , 1, 0, -0, 
__ -0.5, 2, 1, 
__ -0.5, -0.5, 1, 
__ -0.5, -0.5, 0.55, 
__ 2, -0.5, 1, 
__ dp = -0.5 , -2.5, inside=1
__ 3 , 3 , 1, 0, -0, 
__ -0.5, -0.5, 1, 
__ -0.5, -0.5, 0.55, 
__ 2, -0.5, 1, 
__ -0.5, 2, 1, 
__ dp = -0.881876 , 0.436092, inside=0
__ 4 , 0 , 1, 0, -0, 
__ 2, 2, 0.55, 
__ -0.5, 2, 1, 
__ 2, -0.5, 1, 
__ 2, 2, 1, 
__ dp = -1 , -0.45, inside=1
__ 4 , 1 , 1, 0, -0, 
__ -0.5, 2, 1, 
__ 2, -0.5, 1, 
__ 2, 2, 1, 
__ 2, 2, 0.55, 
__ dp = 1 , 2.5, inside=1
__ 4 , 2 , 1, 0, -0, 
__ 2, -0.5, 1, 
__ 2, 2, 1, 
__ 2, 2, 0.55, 
__ -0.5, 2, 1, 
__ dp = -2 , -2.5, inside=1
__ 4 , 3 , 1, 0, -0, 
__ 2, 2, 1, 
__ 2, 2, 0.55, 
__ -0.5, 2, 1, 
__ 2, -0.5, 1, 
__ dp = -1.05631 , 0.436092, inside=0
inside = 0
nijso, considering vertex  = 1
__ 0 , 0 , 1, 0, 0.0333333, 
__ -0.5, -0.5, 0.55, 
__ 2, -0.5, 0.55, 
__ 2, 2, 0.55, 
__ 2, -0.5, 1, 
__ dp = -1 , -2.5, inside=1
__ 0 , 1 , 1, 0, 0.0333333, 
__ 2, -0.5, 0.55, 
__ 2, 2, 0.55, 
__ 2, -0.5, 1, 
__ -0.5, -0.5, 0.55, 
__ dp = 0.675136 , 0.436092, inside=1
__ 0 , 2 , 1, 0, 0.0333333, 
__ 2, 2, 0.55, 
__ 2, -0.5, 1, 
__ -0.5, -0.5, 0.55, 
__ 2, -0.5, 0.55, 
__ dp = -0.5 , -2.5, inside=1
__ 0 , 3 , 1, 0, 0.0333333, 
__ 2, -0.5, 1, 
__ -0.5, -0.5, 0.55, 
__ 2, -0.5, 0.55, 
__ 2, 2, 0.55, 
__ dp = -0.516667 , 0.45, inside=0
__ 1 , 0 , 1, 0, 0.0333333, 
__ -0.5, -0.5, 0.55, 
__ 2, 2, 0.55, 
__ -0.5, 2, 1, 
__ 2, -0.5, 1, 
__ dp = -1.02401 , -0.872185, inside=1
__ 1 , 1 , 1, 0, 0.0333333, 
__ 2, 2, 0.55, 
__ -0.5, 2, 1, 
__ 2, -0.5, 1, 
__ -0.5, -0.5, 0.55, 
__ dp = 0.849573 , 0.872185, inside=1
__ 1 , 2 , 1, 0, 0.0333333, 
__ -0.5, 2, 1, 
__ 2, -0.5, 1, 
__ -0.5, -0.5, 0.55, 
__ 2, 2, 0.55, 
__ dp = 0.675136 , -0.872185, inside=0
__ 1 , 3 , 1, 0, 0.0333333, 
__ 2, -0.5, 1, 
__ -0.5, -0.5, 0.55, 
__ 2, 2, 0.55, 
__ -0.5, 2, 1, 
__ dp = -0.326262 , 0.872185, inside=0
__ 2 , 0 , 1, 0, 0.0333333, 
__ -0.5, -0.5, 0.55, 
__ 2, 2, 0.55, 
__ -0.5, 2, 0.55, 
__ -0.5, 2, 1, 
__ dp = -2 , -2.5, inside=1
__ 2 , 1 , 1, 0, 0.0333333, 
__ 2, 2, 0.55, 
__ -0.5, 2, 0.55, 
__ -0.5, 2, 1, 
__ -0.5, -0.5, 0.55, 
__ dp = 1.5 , 2.5, inside=1
__ 2 , 2 , 1, 0, 0.0333333, 
__ -0.5, 2, 0.55, 
__ -0.5, 2, 1, 
__ -0.5, -0.5, 0.55, 
__ 2, 2, 0.55, 
__ dp = -0.326262 , -0.436092, inside=1
__ 2 , 3 , 1, 0, 0.0333333, 
__ -0.5, 2, 1, 
__ -0.5, -0.5, 0.55, 
__ 2, 2, 0.55, 
__ -0.5, 2, 0.55, 
__ dp = -0.516667 , 0.45, inside=0
__ 3 , 0 , 1, 0, 0.0333333, 
__ -0.5, -0.5, 0.55, 
__ 2, -0.5, 1, 
__ -0.5, 2, 1, 
__ -0.5, -0.5, 1, 
__ dp = -0.966667 , -0.45, inside=1
__ 3 , 1 , 1, 0, 0.0333333, 
__ 2, -0.5, 1, 
__ -0.5, 2, 1, 
__ -0.5, -0.5, 1, 
__ -0.5, -0.5, 0.55, 
__ dp = 1.5 , 2.5, inside=1
__ 3 , 2 , 1, 0, 0.0333333, 
__ -0.5, 2, 1, 
__ -0.5, -0.5, 1, 
__ -0.5, -0.5, 0.55, 
__ 2, -0.5, 1, 
__ dp = -0.5 , -2.5, inside=1
__ 3 , 3 , 1, 0, 0.0333333, 
__ -0.5, -0.5, 1, 
__ -0.5, -0.5, 0.55, 
__ 2, -0.5, 1, 
__ -0.5, 2, 1, 
__ dp = -0.849573 , 0.436092, inside=0
__ 4 , 0 , 1, 0, 0.0333333, 
__ 2, 2, 0.55, 
__ -0.5, 2, 1, 
__ 2, -0.5, 1, 
__ 2, 2, 1, 
__ dp = -0.966667 , -0.45, inside=1
__ 4 , 1 , 1, 0, 0.0333333, 
__ -0.5, 2, 1, 
__ 2, -0.5, 1, 
__ 2, 2, 1, 
__ 2, 2, 0.55, 
__ dp = 1 , 2.5, inside=1
__ 4 , 2 , 1, 0, 0.0333333, 
__ 2, -0.5, 1, 
__ 2, 2, 1, 
__ 2, 2, 0.55, 
__ -0.5, 2, 1, 
__ dp = -2 , -2.5, inside=1
__ 4 , 3 , 1, 0, 0.0333333, 
__ 2, 2, 1, 
__ 2, 2, 0.55, 
__ -0.5, 2, 1, 
__ 2, -0.5, 1, 
__ dp = -1.02401 , 0.436092, inside=0
inside = 0
nijso, considering vertex  = 2
__ 0 , 0 , 1, 0.333333, 0.0333333, 
__ -0.5, -0.5, 0.55, 
__ 2, -0.5, 0.55, 
__ 2, 2, 0.55, 
__ 2, -0.5, 1, 
__ dp = -1 , -2.5, inside=1
__ 0 , 1 , 1, 0.333333, 0.0333333, 
__ 2, -0.5, 0.55, 
__ 2, 2, 0.55, 
__ 2, -0.5, 1, 
__ -0.5, -0.5, 0.55, 
__ dp = 0.61699 , 0.436092, inside=1
__ 0 , 2 , 1, 0.333333, 0.0333333, 
__ 2, 2, 0.55, 
__ 2, -0.5, 1, 
__ -0.5, -0.5, 0.55, 
__ 2, -0.5, 0.55, 
__ dp = -0.833333 , -2.5, inside=1
__ 0 , 3 , 1, 0.333333, 0.0333333, 
__ 2, -0.5, 1, 
__ -0.5, -0.5, 0.55, 
__ 2, -0.5, 0.55, 
__ 2, 2, 0.55, 
__ dp = -0.516667 , 0.45, inside=0
__ 1 , 0 , 1, 0.333333, 0.0333333, 
__ -0.5, -0.5, 0.55, 
__ 2, 2, 0.55, 
__ -0.5, 2, 1, 
__ 2, -0.5, 1, 
__ dp = -0.965864 , -0.872185, inside=1
__ 1 , 1 , 1, 0.333333, 0.0333333, 
__ 2, 2, 0.55, 
__ -0.5, 2, 1, 
__ 2, -0.5, 1, 
__ -0.5, -0.5, 0.55, 
__ dp = 0.907718 , 0.872185, inside=1
__ 1 , 2 , 1, 0.333333, 0.0333333, 
__ -0.5, 2, 1, 
__ 2, -0.5, 1, 
__ -0.5, -0.5, 0.55, 
__ 2, 2, 0.55, 
__ dp = 0.61699 , -0.872185, inside=0
__ 1 , 3 , 1, 0.333333, 0.0333333, 
__ 2, -0.5, 1, 
__ -0.5, -0.5, 0.55, 
__ 2, 2, 0.55, 
__ -0.5, 2, 1, 
__ dp = -0.384407 , 0.872185, inside=0
__ 2 , 0 , 1, 0.333333, 0.0333333, 
__ -0.5, -0.5, 0.55, 
__ 2, 2, 0.55, 
__ -0.5, 2, 0.55, 
__ -0.5, 2, 1, 
__ dp = -1.66667 , -2.5, inside=1
__ 2 , 1 , 1, 0.333333, 0.0333333, 
__ 2, 2, 0.55, 
__ -0.5, 2, 0.55, 
__ -0.5, 2, 1, 
__ -0.5, -0.5, 0.55, 
__ dp = 1.5 , 2.5, inside=1
__ 2 , 2 , 1, 0.333333, 0.0333333, 
__ -0.5, 2, 0.55, 
__ -0.5, 2, 1, 
__ -0.5, -0.5, 0.55, 
__ 2, 2, 0.55, 
__ dp = -0.384407 , -0.436092, inside=1
__ 2 , 3 , 1, 0.333333, 0.0333333, 
__ -0.5, 2, 1, 
__ -0.5, -0.5, 0.55, 
__ 2, 2, 0.55, 
__ -0.5, 2, 0.55, 
__ dp = -0.516667 , 0.45, inside=0
__ 3 , 0 , 1, 0.333333, 0.0333333, 
__ -0.5, -0.5, 0.55, 
__ 2, -0.5, 1, 
__ -0.5, 2, 1, 
__ -0.5, -0.5, 1, 
__ dp = -0.966667 , -0.45, inside=1
__ 3 , 1 , 1, 0.333333, 0.0333333, 
__ 2, -0.5, 1, 
__ -0.5, 2, 1, 
__ -0.5, -0.5, 1, 
__ -0.5, -0.5, 0.55, 
__ dp = 1.5 , 2.5, inside=1
__ 3 , 2 , 1, 0.333333, 0.0333333, 
__ -0.5, 2, 1, 
__ -0.5, -0.5, 1, 
__ -0.5, -0.5, 0.55, 
__ 2, -0.5, 1, 
__ dp = -0.833333 , -2.5, inside=1
__ 3 , 3 , 1, 0.333333, 0.0333333, 
__ -0.5, -0.5, 1, 
__ -0.5, -0.5, 0.55, 
__ 2, -0.5, 1, 
__ -0.5, 2, 1, 
__ dp = -0.907718 , 0.436092, inside=0
__ 4 , 0 , 1, 0.333333, 0.0333333, 
__ 2, 2, 0.55, 
__ -0.5, 2, 1, 
__ 2, -0.5, 1, 
__ 2, 2, 1, 
__ dp = -0.966667 , -0.45, inside=1
__ 4 , 1 , 1, 0.333333, 0.0333333, 
__ -0.5, 2, 1, 
__ 2, -0.5, 1, 
__ 2, 2, 1, 
__ 2, 2, 0.55, 
__ dp = 1 , 2.5, inside=1
__ 4 , 2 , 1, 0.333333, 0.0333333, 
__ 2, -0.5, 1, 
__ 2, 2, 1, 
__ 2, 2, 0.55, 
__ -0.5, 2, 1, 
__ dp = -1.66667 , -2.5, inside=1
__ 4 , 3 , 1, 0.333333, 0.0333333, 
__ 2, 2, 1, 
__ 2, 2, 0.55, 
__ -0.5, 2, 1, 
__ 2, -0.5, 1, 
__ dp = -0.965864 , 0.436092, inside=0
inside = 0
nijso, considering vertex  = 3
__ 0 , 0 , 1, 0.333333, 0, 
__ -0.5, -0.5, 0.55, 
__ 2, -0.5, 0.55, 
__ 2, 2, 0.55, 
__ 2, -0.5, 1, 
__ dp = -1 , -2.5, inside=1
__ 0 , 1 , 1, 0.333333, 0, 
__ 2, -0.5, 0.55, 
__ 2, 2, 0.55, 
__ 2, -0.5, 1, 
__ -0.5, -0.5, 0.55, 
__ dp = 0.649293 , 0.436092, inside=1
__ 0 , 2 , 1, 0.333333, 0, 
__ 2, 2, 0.55, 
__ 2, -0.5, 1, 
__ -0.5, -0.5, 0.55, 
__ 2, -0.5, 0.55, 
__ dp = -0.833333 , -2.5, inside=1
__ 0 , 3 , 1, 0.333333, 0, 
__ 2, -0.5, 1, 
__ -0.5, -0.5, 0.55, 
__ 2, -0.5, 0.55, 
__ 2, 2, 0.55, 
__ dp = -0.55 , 0.45, inside=0
__ 1 , 0 , 1, 0.333333, 0, 
__ -0.5, -0.5, 0.55, 
__ 2, 2, 0.55, 
__ -0.5, 2, 1, 
__ 2, -0.5, 1, 
__ dp = -0.998167 , -0.872185, inside=1
__ 1 , 1 , 1, 0.333333, 0, 
__ 2, 2, 0.55, 
__ -0.5, 2, 1, 
__ 2, -0.5, 1, 
__ -0.5, -0.5, 0.55, 
__ dp = 0.940021 , 0.872185, inside=1
__ 1 , 2 , 1, 0.333333, 0, 
__ -0.5, 2, 1, 
__ 2, -0.5, 1, 
__ -0.5, -0.5, 0.55, 
__ 2, 2, 0.55, 
__ dp = 0.649293 , -0.872185, inside=0
__ 1 , 3 , 1, 0.333333, 0, 
__ 2, -0.5, 1, 
__ -0.5, -0.5, 0.55, 
__ 2, 2, 0.55, 
__ -0.5, 2, 1, 
__ dp = -0.41671 , 0.872185, inside=0
__ 2 , 0 , 1, 0.333333, 0, 
__ -0.5, -0.5, 0.55, 
__ 2, 2, 0.55, 
__ -0.5, 2, 0.55, 
__ -0.5, 2, 1, 
__ dp = -1.66667 , -2.5, inside=1
__ 2 , 1 , 1, 0.333333, 0, 
__ 2, 2, 0.55, 
__ -0.5, 2, 0.55, 
__ -0.5, 2, 1, 
__ -0.5, -0.5, 0.55, 
__ dp = 1.5 , 2.5, inside=1
__ 2 , 2 , 1, 0.333333, 0, 
__ -0.5, 2, 0.55, 
__ -0.5, 2, 1, 
__ -0.5, -0.5, 0.55, 
__ 2, 2, 0.55, 
__ dp = -0.41671 , -0.436092, inside=1
__ 2 , 3 , 1, 0.333333, 0, 
__ -0.5, 2, 1, 
__ -0.5, -0.5, 0.55, 
__ 2, 2, 0.55, 
__ -0.5, 2, 0.55, 
__ dp = -0.55 , 0.45, inside=0
__ 3 , 0 , 1, 0.333333, 0, 
__ -0.5, -0.5, 0.55, 
__ 2, -0.5, 1, 
__ -0.5, 2, 1, 
__ -0.5, -0.5, 1, 
__ dp = -1 , -0.45, inside=1
__ 3 , 1 , 1, 0.333333, 0, 
__ 2, -0.5, 1, 
__ -0.5, 2, 1, 
__ -0.5, -0.5, 1, 
__ -0.5, -0.5, 0.55, 
__ dp = 1.5 , 2.5, inside=1
__ 3 , 2 , 1, 0.333333, 0, 
__ -0.5, 2, 1, 
__ -0.5, -0.5, 1, 
__ -0.5, -0.5, 0.55, 
__ 2, -0.5, 1, 
__ dp = -0.833333 , -2.5, inside=1
__ 3 , 3 , 1, 0.333333, 0, 
__ -0.5, -0.5, 1, 
__ -0.5, -0.5, 0.55, 
__ 2, -0.5, 1, 
__ -0.5, 2, 1, 
__ dp = -0.940021 , 0.436092, inside=0
__ 4 , 0 , 1, 0.333333, 0, 
__ 2, 2, 0.55, 
__ -0.5, 2, 1, 
__ 2, -0.5, 1, 
__ 2, 2, 1, 
__ dp = -1 , -0.45, inside=1
__ 4 , 1 , 1, 0.333333, 0, 
__ -0.5, 2, 1, 
__ 2, -0.5, 1, 
__ 2, 2, 1, 
__ 2, 2, 0.55, 
__ dp = 1 , 2.5, inside=1
__ 4 , 2 , 1, 0.333333, 0, 
__ 2, -0.5, 1, 
__ 2, 2, 1, 
__ 2, 2, 0.55, 
__ -0.5, 2, 1, 
__ dp = -1.66667 , -2.5, inside=1
__ 4 , 3 , 1, 0.333333, 0, 
__ 2, 2, 1, 
__ 2, 2, 0.55, 
__ -0.5, 2, 1, 
__ 2, -0.5, 1, 
__ dp = -0.998167 , 0.436092, inside=0
inside = 0
nijso, considering vertex  = 4
__ 0 , 0 , 1, 0, 0.0666667, 
__ -0.5, -0.5, 0.55, 
__ 2, -0.5, 0.55, 
__ 2, 2, 0.55, 
__ 2, -0.5, 1, 
__ dp = -1 , -2.5, inside=1
__ 0 , 1 , 1, 0, 0.0666667, 
__ 2, -0.5, 0.55, 
__ 2, 2, 0.55, 
__ 2, -0.5, 1, 
__ -0.5, -0.5, 0.55, 
__ dp = 0.642832 , 0.436092, inside=1
__ 0 , 2 , 1, 0, 0.0666667, 
__ 2, 2, 0.55, 
__ 2, -0.5, 1, 
__ -0.5, -0.5, 0.55, 
__ 2, -0.5, 0.55, 
__ dp = -0.5 , -2.5, inside=1
__ 0 , 3 , 1, 0, 0.0666667, 
__ 2, -0.5, 1, 
__ -0.5, -0.5, 0.55, 
__ 2, -0.5, 0.55, 
__ 2, 2, 0.55, 
__ dp = -0.483333 , 0.45, inside=0
__ 1 , 0 , 1, 0, 0.0666667, 
__ -0.5, -0.5, 0.55, 
__ 2, 2, 0.55, 
__ -0.5, 2, 1, 
__ 2, -0.5, 1, 
__ dp = -0.991706 , -0.872185, inside=1
__ 1 , 1 , 1, 0, 0.0666667, 
__ 2, 2, 0.55, 
__ -0.5, 2, 1, 
__ 2, -0.5, 1, 
__ -0.5, -0.5, 0.55, 
__ dp = 0.817269 , 0.872185, inside=1
__ 1 , 2 , 1, 0, 0.0666667, 
__ -0.5, 2, 1, 
__ 2, -0.5, 1, 
__ -0.5, -0.5, 0.55, 
__ 2, 2, 0.55, 
__ dp = 0.642832 , -0.872185, inside=0
__ 1 , 3 , 1, 0, 0.0666667, 
__ 2, -0.5, 1, 
__ -0.5, -0.5, 0.55, 
__ 2, 2, 0.55, 
__ -0.5, 2, 1, 
__ dp = -0.293959 , 0.872185, inside=0
__ 2 , 0 , 1, 0, 0.0666667, 
__ -0.5, -0.5, 0.55, 
__ 2, 2, 0.55, 
__ -0.5, 2, 0.55, 
__ -0.5, 2, 1, 
__ dp = -2 , -2.5, inside=1
__ 2 , 1 , 1, 0, 0.0666667, 
__ 2, 2, 0.55, 
__ -0.5, 2, 0.55, 
__ -0.5, 2, 1, 
__ -0.5, -0.5, 0.55, 
__ dp = 1.5 , 2.5, inside=1
__ 2 , 2 , 1, 0, 0.0666667, 
__ -0.5, 2, 0.55, 
__ -0.5, 2, 1, 
__ -0.5, -0.5, 0.55, 
__ 2, 2, 0.55, 
__ dp = -0.293959 , -0.436092, inside=1
__ 2 , 3 , 1, 0, 0.0666667, 
__ -0.5, 2, 1, 
__ -0.5, -0.5, 0.55, 
__ 2, 2, 0.55, 
__ -0.5, 2, 0.55, 
__ dp = -0.483333 , 0.45, inside=0
__ 3 , 0 , 1, 0, 0.0666667, 
__ -0.5, -0.5, 0.55, 
__ 2, -0.5, 1, 
__ -0.5, 2, 1, 
__ -0.5, -0.5, 1, 
__ dp = -0.933333 , -0.45, inside=1
__ 3 , 1 , 1, 0, 0.0666667, 
__ 2, -0.5, 1, 
__ -0.5, 2, 1, 
__ -0.5, -0.5, 1, 
__ -0.5, -0.5, 0.55, 
__ dp = 1.5 , 2.5, inside=1
__ 3 , 2 , 1, 0, 0.0666667, 
__ -0.5, 2, 1, 
__ -0.5, -0.5, 1, 
__ -0.5, -0.5, 0.55, 
__ 2, -0.5, 1, 
__ dp = -0.5 , -2.5, inside=1
__ 3 , 3 , 1, 0, 0.0666667, 
__ -0.5, -0.5, 1, 
__ -0.5, -0.5, 0.55, 
__ 2, -0.5, 1, 
__ -0.5, 2, 1, 
__ dp = -0.817269 , 0.436092, inside=0
__ 4 , 0 , 1, 0, 0.0666667, 
__ 2, 2, 0.55, 
__ -0.5, 2, 1, 
__ 2, -0.5, 1, 
__ 2, 2, 1, 
__ dp = -0.933333 , -0.45, inside=1
__ 4 , 1 , 1, 0, 0.0666667, 
__ -0.5, 2, 1, 
__ 2, -0.5, 1, 
__ 2, 2, 1, 
__ 2, 2, 0.55, 
__ dp = 1 , 2.5, inside=1
__ 4 , 2 , 1, 0, 0.0666667, 
__ 2, -0.5, 1, 
__ 2, 2, 1, 
__ 2, 2, 0.55, 
__ -0.5, 2, 1, 
__ dp = -2 , -2.5, inside=1
__ 4 , 3 , 1, 0, 0.0666667, 
__ 2, 2, 1, 
__ 2, 2, 0.55, 
__ -0.5, 2, 1, 
__ 2, -0.5, 1, 
__ dp = -0.991706 , 0.436092, inside=0
inside = 0
nijso, considering vertex  = 5
__ 0 , 0 , 1, 0.333333, 0.0666667, 
__ -0.5, -0.5, 0.55, 
__ 2, -0.5, 0.55, 
__ 2, 2, 0.55, 
__ 2, -0.5, 1, 
__ dp = -1 , -2.5, inside=1
__ 0 , 1 , 1, 0.333333, 0.0666667, 
__ 2, -0.5, 0.55, 
__ 2, 2, 0.55, 
__ 2, -0.5, 1, 
__ -0.5, -0.5, 0.55, 
__ dp = 0.584687 , 0.436092, inside=1
__ 0 , 2 , 1, 0.333333, 0.0666667, 
__ 2, 2, 0.55, 
__ 2, -0.5, 1, 
__ -0.5, -0.5, 0.55, 
__ 2, -0.5, 0.55, 
__ dp = -0.833333 , -2.5, inside=1
__ 0 , 3 , 1, 0.333333, 0.0666667, 
__ 2, -0.5, 1, 
__ -0.5, -0.5, 0.55, 
__ 2, -0.5, 0.55, 
__ 2, 2, 0.55, 
__ dp = -0.483333 , 0.45, inside=0
__ 1 , 0 , 1, 0.333333, 0.0666667, 
__ -0.5, -0.5, 0.55, 
__ 2, 2, 0.55, 
__ -0.5, 2, 1, 
__ 2, -0.5, 1, 
__ dp = -0.933561 , -0.872185, inside=1
__ 1 , 1 , 1, 0.333333, 0.0666667, 
__ 2, 2, 0.55, 
__ -0.5, 2, 1, 
__ 2, -0.5, 1, 
__ -0.5, -0.5, 0.55, 
__ dp = 0.875415 , 0.872185, inside=1
__ 1 , 2 , 1, 0.333333, 0.0666667, 
__ -0.5, 2, 1, 
__ 2, -0.5, 1, 
__ -0.5, -0.5, 0.55, 
__ 2, 2, 0.55, 
__ dp = 0.584687 , -0.872185, inside=0
__ 1 , 3 , 1, 0.333333, 0.0666667, 
__ 2, -0.5, 1, 
__ -0.5, -0.5, 0.55, 
__ 2, 2, 0.55, 
__ -0.5, 2, 1, 
__ dp = -0.352104 , 0.872185, inside=0
__ 2 , 0 , 1, 0.333333, 0.0666667, 
__ -0.5, -0.5, 0.55, 
__ 2, 2, 0.55, 
__ -0.5, 2, 0.55, 
__ -0.5, 2, 1, 
__ dp = -1.66667 , -2.5, inside=1
__ 2 , 1 , 1, 0.333333, 0.0666667, 
__ 2, 2, 0.55, 
__ -0.5, 2, 0.55, 
__ -0.5, 2, 1, 
__ -0.5, -0.5, 0.55, 
__ dp = 1.5 , 2.5, inside=1
__ 2 , 2 , 1, 0.333333, 0.0666667, 
__ -0.5, 2, 0.55, 
__ -0.5, 2, 1, 
__ -0.5, -0.5, 0.55, 
__ 2, 2, 0.55, 
__ dp = -0.352104 , -0.436092, inside=1
__ 2 , 3 , 1, 0.333333, 0.0666667, 
__ -0.5, 2, 1, 
__ -0.5, -0.5, 0.55, 
__ 2, 2, 0.55, 
__ -0.5, 2, 0.55, 
__ dp = -0.483333 , 0.45, inside=0
__ 3 , 0 , 1, 0.333333, 0.0666667, 
__ -0.5, -0.5, 0.55, 
__ 2, -0.5, 1, 
__ -0.5, 2, 1, 
__ -0.5, -0.5, 1, 
__ dp = -0.933333 , -0.45, inside=1
__ 3 , 1 , 1, 0.333333, 0.0666667, 
__ 2, -0.5, 1, 
__ -0.5, 2, 1, 
__ -0.5, -0.5, 1, 
__ -0.5, -0.5, 0.55, 
__ dp = 1.5 , 2.5, inside=1
__ 3 , 2 , 1, 0.333333, 0.0666667, 
__ -0.5, 2, 1, 
__ -0.5, -0.5, 1, 
__ -0.5, -0.5, 0.55, 
__ 2, -0.5, 1, 
__ dp = -0.833333 , -2.5, inside=1
__ 3 , 3 , 1, 0.333333, 0.0666667, 
__ -0.5, -0.5, 1, 
__ -0.5, -0.5, 0.55, 
__ 2, -0.5, 1, 
__ -0.5, 2, 1, 
__ dp = -0.875415 , 0.436092, inside=0
__ 4 , 0 , 1, 0.333333, 0.0666667, 
__ 2, 2, 0.55, 
__ -0.5, 2, 1, 
__ 2, -0.5, 1, 
__ 2, 2, 1, 
__ dp = -0.933333 , -0.45, inside=1
__ 4 , 1 , 1, 0.333333, 0.0666667, 
__ -0.5, 2, 1, 
__ 2, -0.5, 1, 
__ 2, 2, 1, 
__ 2, 2, 0.55, 
__ dp = 1 , 2.5, inside=1
__ 4 , 2 , 1, 0.333333, 0.0666667, 
__ 2, -0.5, 1, 
__ 2, 2, 1, 
__ 2, 2, 0.55, 
__ -0.5, 2, 1, 
__ dp = -1.66667 , -2.5, inside=1
__ 4 , 3 , 1, 0.333333, 0.0666667, 
__ 2, 2, 1, 
__ 2, 2, 0.55, 
__ -0.5, 2, 1, 
__ 2, -0.5, 1, 
__ dp = -0.933561 , 0.436092, inside=0
inside = 0
nijso, considering vertex  = 6
__ 0 , 0 , 1, 0, 0.1, 
__ -0.5, -0.5, 0.55, 
__ 2, -0.5, 0.55, 
__ 2, 2, 0.55, 
__ 2, -0.5, 1, 
__ dp = -1 , -2.5, inside=1
__ 0 , 1 , 1, 0, 0.1, 
__ 2, -0.5, 0.55, 
__ 2, 2, 0.55, 
__ 2, -0.5, 1, 
__ -0.5, -0.5, 0.55, 
__ dp = 0.610529 , 0.436092, inside=1
__ 0 , 2 , 1, 0, 0.1, 
__ 2, 2, 0.55, 
__ 2, -0.5, 1, 
__ -0.5, -0.5, 0.55, 
__ 2, -0.5, 0.55, 
__ dp = -0.5 , -2.5, inside=1
__ 0 , 3 , 1, 0, 0.1, 
__ 2, -0.5, 1, 
__ -0.5, -0.5, 0.55, 
__ 2, -0.5, 0.55, 
__ 2, 2, 0.55, 
__ dp = -0.45 , 0.45, inside=0
__ 1 , 0 , 1, 0, 0.1, 
__ -0.5, -0.5, 0.55, 
__ 2, 2, 0.55, 
__ -0.5, 2, 1, 
__ 2, -0.5, 1, 
__ dp = -0.959403 , -0.872185, inside=1
__ 1 , 1 , 1, 0, 0.1, 
__ 2, 2, 0.55, 
__ -0.5, 2, 1, 
__ 2, -0.5, 1, 
__ -0.5, -0.5, 0.55, 
__ dp = 0.784966 , 0.872185, inside=1
__ 1 , 2 , 1, 0, 0.1, 
__ -0.5, 2, 1, 
__ 2, -0.5, 1, 
__ -0.5, -0.5, 0.55, 
__ 2, 2, 0.55, 
__ dp = 0.610529 , -0.872185, inside=0
__ 1 , 3 , 1, 0, 0.1, 
__ 2, -0.5, 1, 
__ -0.5, -0.5, 0.55, 
__ 2, 2, 0.55, 
__ -0.5, 2, 1, 
__ dp = -0.261655 , 0.872185, inside=0
__ 2 , 0 , 1, 0, 0.1, 
__ -0.5, -0.5, 0.55, 
__ 2, 2, 0.55, 
__ -0.5, 2, 0.55, 
__ -0.5, 2, 1, 
__ dp = -2 , -2.5, inside=1
__ 2 , 1 , 1, 0, 0.1, 
__ 2, 2, 0.55, 
__ -0.5, 2, 0.55, 
__ -0.5, 2, 1, 
__ -0.5, -0.5, 0.55, 
__ dp = 1.5 , 2.5, inside=1
__ 2 , 2 , 1, 0, 0.1, 
__ -0.5, 2, 0.55, 
__ -0.5, 2, 1, 
__ -0.5, -0.5, 0.55, 
__ 2, 2, 0.55, 
__ dp = -0.261655 , -0.436092, inside=1
__ 2 , 3 , 1, 0, 0.1, 
__ -0.5, 2, 1, 
__ -0.5, -0.5, 0.55, 
__ 2, 2, 0.55, 
__ -0.5, 2, 0.55, 
__ dp = -0.45 , 0.45, inside=0
__ 3 , 0 , 1, 0, 0.1, 
__ -0.5, -0.5, 0.55, 
__ 2, -0.5, 1, 
__ -0.5, 2, 1, 
__ -0.5, -0.5, 1, 
__ dp = -0.9 , -0.45, inside=1
__ 3 , 1 , 1, 0, 0.1, 
__ 2, -0.5, 1, 
__ -0.5, 2, 1, 
__ -0.5, -0.5, 1, 
__ -0.5, -0.5, 0.55, 
__ dp = 1.5 , 2.5, inside=1
__ 3 , 2 , 1, 0, 0.1, 
__ -0.5, 2, 1, 
__ -0.5, -0.5, 1, 
__ -0.5, -0.5, 0.55, 
__ 2, -0.5, 1, 
__ dp = -0.5 , -2.5, inside=1
__ 3 , 3 , 1, 0, 0.1, 
__ -0.5, -0.5, 1, 
__ -0.5, -0.5, 0.55, 
__ 2, -0.5, 1, 
__ -0.5, 2, 1, 
__ dp = -0.784966 , 0.436092, inside=0
__ 4 , 0 , 1, 0, 0.1, 
__ 2, 2, 0.55, 
__ -0.5, 2, 1, 
__ 2, -0.5, 1, 
__ 2, 2, 1, 
__ dp = -0.9 , -0.45, inside=1
__ 4 , 1 , 1, 0, 0.1, 
__ -0.5, 2, 1, 
__ 2, -0.5, 1, 
__ 2, 2, 1, 
__ 2, 2, 0.55, 
__ dp = 1 , 2.5, inside=1
__ 4 , 2 , 1, 0, 0.1, 
__ 2, -0.5, 1, 
__ 2, 2, 1, 
__ 2, 2, 0.55, 
__ -0.5, 2, 1, 
__ dp = -2 , -2.5, inside=1
__ 4 , 3 , 1, 0, 0.1, 
__ 2, 2, 1, 
__ 2, 2, 0.55, 
__ -0.5, 2, 1, 
__ 2, -0.5, 1, 
__ dp = -0.959403 , 0.436092, inside=0
inside = 0
nijso, considering vertex  = 7
__ 0 , 0 , 1, 0.333333, 0.1, 
__ -0.5, -0.5, 0.55, 
__ 2, -0.5, 0.55, 
__ 2, 2, 0.55, 
__ 2, -0.5, 1, 
__ dp = -1 , -2.5, inside=1
__ 0 , 1 , 1, 0.333333, 0.1, 
__ 2, -0.5, 0.55, 
__ 2, 2, 0.55, 
__ 2, -0.5, 1, 
__ -0.5, -0.5, 0.55, 
__ dp = 0.552384 , 0.436092, inside=1
__ 0 , 2 , 1, 0.333333, 0.1, 
__ 2, 2, 0.55, 
__ 2, -0.5, 1, 
__ -0.5, -0.5, 0.55, 
__ 2, -0.5, 0.55, 
__ dp = -0.833333 , -2.5, inside=1
__ 0 , 3 , 1, 0.333333, 0.1, 
__ 2, -0.5, 1, 
__ -0.5, -0.5, 0.55, 
__ 2, -0.5, 0.55, 
__ 2, 2, 0.55, 
__ dp = -0.45 , 0.45, inside=0
__ 1 , 0 , 1, 0.333333, 0.1, 
__ -0.5, -0.5, 0.55, 
__ 2, 2, 0.55, 
__ -0.5, 2, 1, 
__ 2, -0.5, 1, 
__ dp = -0.901258 , -0.872185, inside=1
__ 1 , 1 , 1, 0.333333, 0.1, 
__ 2, 2, 0.55, 
__ -0.5, 2, 1, 
__ 2, -0.5, 1, 
__ -0.5, -0.5, 0.55, 
__ dp = 0.843112 , 0.872185, inside=1
__ 1 , 2 , 1, 0.333333, 0.1, 
__ -0.5, 2, 1, 
__ 2, -0.5, 1, 
__ -0.5, -0.5, 0.55, 
__ 2, 2, 0.55, 
__ dp = 0.552384 , -0.872185, inside=0
__ 1 , 3 , 1, 0.333333, 0.1, 
__ 2, -0.5, 1, 
__ -0.5, -0.5, 0.55, 
__ 2, 2, 0.55, 
__ -0.5, 2, 1, 
__ dp = -0.319801 , 0.872185, inside=0
__ 2 , 0 , 1, 0.333333, 0.1, 
__ -0.5, -0.5, 0.55, 
__ 2, 2, 0.55, 
__ -0.5, 2, 0.55, 
__ -0.5, 2, 1, 
__ dp = -1.66667 , -2.5, inside=1
__ 2 , 1 , 1, 0.333333, 0.1, 
__ 2, 2, 0.55, 
__ -0.5, 2, 0.55, 
__ -0.5, 2, 1, 
__ -0.5, -0.5, 0.55, 
__ dp = 1.5 , 2.5, inside=1
__ 2 , 2 , 1, 0.333333, 0.1, 
__ -0.5, 2, 0.55, 
__ -0.5, 2, 1, 
__ -0.5, -0.5, 0.55, 
__ 2, 2, 0.55, 
__ dp = -0.319801 , -0.436092, inside=1
__ 2 , 3 , 1, 0.333333, 0.1, 
__ -0.5, 2, 1, 
__ -0.5, -0.5, 0.55, 
__ 2, 2, 0.55, 
__ -0.5, 2, 0.55, 
__ dp = -0.45 , 0.45, inside=0
__ 3 , 0 , 1, 0.333333, 0.1, 
__ -0.5, -0.5, 0.55, 
__ 2, -0.5, 1, 
__ -0.5, 2, 1, 
__ -0.5, -0.5, 1, 
__ dp = -0.9 , -0.45, inside=1
__ 3 , 1 , 1, 0.333333, 0.1, 
__ 2, -0.5, 1, 
__ -0.5, 2, 1, 
__ -0.5, -0.5, 1, 
__ -0.5, -0.5, 0.55, 
__ dp = 1.5 , 2.5, inside=1
__ 3 , 2 , 1, 0.333333, 0.1, 
__ -0.5, 2, 1, 
__ -0.5, -0.5, 1, 
__ -0.5, -0.5, 0.55, 
__ 2, -0.5, 1, 
__ dp = -0.833333 , -2.5, inside=1
__ 3 , 3 , 1, 0.333333, 0.1, 
__ -0.5, -0.5, 1, 
__ -0.5, -0.5, 0.55, 
__ 2, -0.5, 1, 
__ -0.5, 2, 1, 
__ dp = -0.843112 , 0.436092, inside=0
__ 4 , 0 , 1, 0.333333, 0.1, 
__ 2, 2, 0.55, 
__ -0.5, 2, 1, 
__ 2, -0.5, 1, 
__ 2, 2, 1, 
__ dp = -0.9 , -0.45, inside=1
__ 4 , 1 , 1, 0.333333, 0.1, 
__ -0.5, 2, 1, 
__ 2, -0.5, 1, 
__ 2, 2, 1, 
__ 2, 2, 0.55, 
__ dp = 1 , 2.5, inside=1
__ 4 , 2 , 1, 0.333333, 0.1, 
__ 2, -0.5, 1, 
__ 2, 2, 1, 
__ 2, 2, 0.55, 
__ -0.5, 2, 1, 
__ dp = -1.66667 , -2.5, inside=1
__ 4 , 3 , 1, 0.333333, 0.1, 
__ 2, 2, 1, 
__ 2, 2, 0.55, 
__ -0.5, 2, 1, 
__ 2, -0.5, 1, 
__ dp = -0.901258 , 0.436092, inside=0
inside = 0
nijso, considering vertex  = 8
__ 0 , 0 , 1, 0.666667, 0.0333333, 
__ -0.5, -0.5, 0.55, 
__ 2, -0.5, 0.55, 
__ 2, 2, 0.55, 
__ 2, -0.5, 1, 
__ dp = -1 , -2.5, inside=1
__ 0 , 1 , 1, 0.666667, 0.0333333, 
__ 2, -0.5, 0.55, 
__ 2, 2, 0.55, 
__ 2, -0.5, 1, 
__ -0.5, -0.5, 0.55, 
__ dp = 0.558844 , 0.436092, inside=1
__ 0 , 2 , 1, 0.666667, 0.0333333, 
__ 2, 2, 0.55, 
__ 2, -0.5, 1, 
__ -0.5, -0.5, 0.55, 
__ 2, -0.5, 0.55, 
__ dp = -1.16667 , -2.5, inside=1
__ 0 , 3 , 1, 0.666667, 0.0333333, 
__ 2, -0.5, 1, 
__ -0.5, -0.5, 0.55, 
__ 2, -0.5, 0.55, 
__ 2, 2, 0.55, 
__ dp = -0.516667 , 0.45, inside=0
__ 1 , 0 , 1, 0.666667, 0.0333333, 
__ -0.5, -0.5, 0.55, 
__ 2, 2, 0.55, 
__ -0.5, 2, 1, 
__ 2, -0.5, 1, 
__ dp = -0.907718 , -0.872185, inside=1
__ 1 , 1 , 1, 0.666667, 0.0333333, 
__ 2, 2, 0.55, 
__ -0.5, 2, 1, 
__ 2, -0.5, 1, 
__ -0.5, -0.5, 0.55, 
__ dp = 0.965864 , 0.872185, inside=1
__ 1 , 2 , 1, 0.666667, 0.0333333, 
__ -0.5, 2, 1, 
__ 2, -0.5, 1, 
__ -0.5, -0.5, 0.55, 
__ 2, 2, 0.55, 
__ dp = 0.558844 , -0.872185, inside=0
__ 1 , 3 , 1, 0.666667, 0.0333333, 
__ 2, -0.5, 1, 
__ -0.5, -0.5, 0.55, 
__ 2, 2, 0.55, 
__ -0.5, 2, 1, 
__ dp = -0.442553 , 0.872185, inside=0
__ 2 , 0 , 1, 0.666667, 0.0333333, 
__ -0.5, -0.5, 0.55, 
__ 2, 2, 0.55, 
__ -0.5, 2, 0.55, 
__ -0.5, 2, 1, 
__ dp = -1.33333 , -2.5, inside=1
__ 2 , 1 , 1, 0.666667, 0.0333333, 
__ 2, 2, 0.55, 
__ -0.5, 2, 0.55, 
__ -0.5, 2, 1, 
__ -0.5, -0.5, 0.55, 
__ dp = 1.5 , 2.5, inside=1
__ 2 , 2 , 1, 0.666667, 0.0333333, 
__ -0.5, 2, 0.55, 
__ -0.5, 2, 1, 
__ -0.5, -0.5, 0.55, 
__ 2, 2, 0.55, 
__ dp = -0.442553 , -0.436092, inside=1
__ 2 , 3 , 1, 0.666667, 0.0333333, 
__ -0.5, 2, 1, 
__ -0.5, -0.5, 0.55, 
__ 2, 2, 0.55, 
__ -0.5, 2, 0.55, 
__ dp = -0.516667 , 0.45, inside=0
__ 3 , 0 , 1, 0.666667, 0.0333333, 
__ -0.5, -0.5, 0.55, 
__ 2, -0.5, 1, 
__ -0.5, 2, 1, 
__ -0.5, -0.5, 1, 
__ dp = -0.966667 , -0.45, inside=1
__ 3 , 1 , 1, 0.666667, 0.0333333, 
__ 2, -0.5, 1, 
__ -0.5, 2, 1, 
__ -0.5, -0.5, 1, 
__ -0.5, -0.5, 0.55, 
__ dp = 1.5 , 2.5, inside=1
__ 3 , 2 , 1, 0.666667, 0.0333333, 
__ -0.5, 2, 1, 
__ -0.5, -0.5, 1, 
__ -0.5, -0.5, 0.55, 
__ 2, -0.5, 1, 
__ dp = -1.16667 , -2.5, inside=1
__ 3 , 3 , 1, 0.666667, 0.0333333, 
__ -0.5, -0.5, 1, 
__ -0.5, -0.5, 0.55, 
__ 2, -0.5, 1, 
__ -0.5, 2, 1, 
__ dp = -0.965864 , 0.436092, inside=0
__ 4 , 0 , 1, 0.666667, 0.0333333, 
__ 2, 2, 0.55, 
__ -0.5, 2, 1, 
__ 2, -0.5, 1, 
__ 2, 2, 1, 
__ dp = -0.966667 , -0.45, inside=1
__ 4 , 1 , 1, 0.666667, 0.0333333, 
__ -0.5, 2, 1, 
__ 2, -0.5, 1, 
__ 2, 2, 1, 
__ 2, 2, 0.55, 
__ dp = 1 , 2.5, inside=1
__ 4 , 2 , 1, 0.666667, 0.0333333, 
__ 2, -0.5, 1, 
__ 2, 2, 1, 
__ 2, 2, 0.55, 
__ -0.5, 2, 1, 
__ dp = -1.33333 , -2.5, inside=1
__ 4 , 3 , 1, 0.666667, 0.0333333, 
__ 2, 2, 1, 
__ 2, 2, 0.55, 
__ -0.5, 2, 1, 
__ 2, -0.5, 1, 
__ dp = -0.907718 , 0.436092, inside=0
inside = 0
nijso, considering vertex  = 9
__ 0 , 0 , 1, 0.666667, 0, 
__ -0.5, -0.5, 0.55, 
__ 2, -0.5, 0.55, 
__ 2, 2, 0.55, 
__ 2, -0.5, 1, 
__ dp = -1 , -2.5, inside=1
__ 0 , 1 , 1, 0.666667, 0, 
__ 2, -0.5, 0.55, 
__ 2, 2, 0.55, 
__ 2, -0.5, 1, 
__ -0.5, -0.5, 0.55, 
__ dp = 0.591147 , 0.436092, inside=1
__ 0 , 2 , 1, 0.666667, 0, 
__ 2, 2, 0.55, 
__ 2, -0.5, 1, 
__ -0.5, -0.5, 0.55, 
__ 2, -0.5, 0.55, 
__ dp = -1.16667 , -2.5, inside=1
__ 0 , 3 , 1, 0.666667, 0, 
__ 2, -0.5, 1, 
__ -0.5, -0.5, 0.55, 
__ 2, -0.5, 0.55, 
__ 2, 2, 0.55, 
__ dp = -0.55 , 0.45, inside=0
__ 1 , 0 , 1, 0.666667, 0, 
__ -0.5, -0.5, 0.55, 
__ 2, 2, 0.55, 
__ -0.5, 2, 1, 
__ 2, -0.5, 1, 
__ dp = -0.940021 , -0.872185, inside=1
__ 1 , 1 , 1, 0.666667, 0, 
__ 2, 2, 0.55, 
__ -0.5, 2, 1, 
__ 2, -0.5, 1, 
__ -0.5, -0.5, 0.55, 
__ dp = 0.998167 , 0.872185, inside=1
__ 1 , 2 , 1, 0.666667, 0, 
__ -0.5, 2, 1, 
__ 2, -0.5, 1, 
__ -0.5, -0.5, 0.55, 
__ 2, 2, 0.55, 
__ dp = 0.591147 , -0.872185, inside=0
__ 1 , 3 , 1, 0.666667, 0, 
__ 2, -0.5, 1, 
__ -0.5, -0.5, 0.55, 
__ 2, 2, 0.55, 
__ -0.5, 2, 1, 
__ dp = -0.474856 , 0.872185, inside=0
__ 2 , 0 , 1, 0.666667, 0, 
__ -0.5, -0.5, 0.55, 
__ 2, 2, 0.55, 
__ -0.5, 2, 0.55, 
__ -0.5, 2, 1, 
__ dp = -1.33333 , -2.5, inside=1
__ 2 , 1 , 1, 0.666667, 0, 
__ 2, 2, 0.55, 
__ -0.5, 2, 0.55, 
__ -0.5, 2, 1, 
__ -0.5, -0.5, 0.55, 
__ dp = 1.5 , 2.5, inside=1
__ 2 , 2 , 1, 0.666667, 0, 
__ -0.5, 2, 0.55, 
__ -0.5, 2, 1, 
__ -0.5, -0.5, 0.55, 
__ 2, 2, 0.55, 
__ dp = -0.474856 , -0.436092, inside=1
__ 2 , 3 , 1, 0.666667, 0, 
__ -0.5, 2, 1, 
__ -0.5, -0.5, 0.55, 
__ 2, 2, 0.55, 
__ -0.5, 2, 0.55, 
__ dp = -0.55 , 0.45, inside=0
__ 3 , 0 , 1, 0.666667, 0, 
__ -0.5, -0.5, 0.55, 
__ 2, -0.5, 1, 
__ -0.5, 2, 1, 
__ -0.5, -0.5, 1, 
__ dp = -1 , -0.45, inside=1
__ 3 , 1 , 1, 0.666667, 0, 
__ 2, -0.5, 1, 
__ -0.5, 2, 1, 
__ -0.5, -0.5, 1, 
__ -0.5, -0.5, 0.55, 
__ dp = 1.5 , 2.5, inside=1
__ 3 , 2 , 1, 0.666667, 0, 
__ -0.5, 2, 1, 
__ -0.5, -0.5, 1, 
__ -0.5, -0.5, 0.55, 
__ 2, -0.5, 1, 
__ dp = -1.16667 , -2.5, inside=1
__ 3 , 3 , 1, 0.666667, 0, 
__ -0.5, -0.5, 1, 
__ -0.5, -0.5, 0.55, 
__ 2, -0.5, 1, 
__ -0.5, 2, 1, 
__ dp = -0.998167 , 0.436092, inside=0
__ 4 , 0 , 1, 0.666667, 0, 
__ 2, 2, 0.55, 
__ -0.5, 2, 1, 
__ 2, -0.5, 1, 
__ 2, 2, 1, 
__ dp = -1 , -0.45, inside=1
__ 4 , 1 , 1, 0.666667, 0, 
__ -0.5, 2, 1, 
__ 2, -0.5, 1, 
__ 2, 2, 1, 
__ 2, 2, 0.55, 
__ dp = 1 , 2.5, inside=1
__ 4 , 2 , 1, 0.666667, 0, 
__ 2, -0.5, 1, 
__ 2, 2, 1, 
__ 2, 2, 0.55, 
__ -0.5, 2, 1, 
__ dp = -1.33333 , -2.5, inside=1
__ 4 , 3 , 1, 0.666667, 0, 
__ 2, 2, 1, 
__ 2, 2, 0.55, 
__ -0.5, 2, 1, 
__ 2, -0.5, 1, 
__ dp = -0.940021 , 0.436092, inside=0
inside = 0
nijso, considering vertex  = 10
__ 0 , 0 , 1, 0.666667, 0.0666667, 
__ -0.5, -0.5, 0.55, 
__ 2, -0.5, 0.55, 
__ 2, 2, 0.55, 
__ 2, -0.5, 1, 
__ dp = -1 , -2.5, inside=1
__ 0 , 1 , 1, 0.666667, 0.0666667, 
__ 2, -0.5, 0.55, 
__ 2, 2, 0.55, 
__ 2, -0.5, 1, 
__ -0.5, -0.5, 0.55, 
__ dp = 0.526541 , 0.436092, inside=1
__ 0 , 2 , 1, 0.666667, 0.0666667, 
__ 2, 2, 0.55, 
__ 2, -0.5, 1, 
__ -0.5, -0.5, 0.55, 
__ 2, -0.5, 0.55, 
__ dp = -1.16667 , -2.5, inside=1
__ 0 , 3 , 1, 0.666667, 0.0666667, 
__ 2, -0.5, 1, 
__ -0.5, -0.5, 0.55, 
__ 2, -0.5, 0.55, 
__ 2, 2, 0.55, 
__ dp = -0.483333 , 0.45, inside=0
__ 1 , 0 , 1, 0.666667, 0.0666667, 
__ -0.5, -0.5, 0.55, 
__ 2, 2, 0.55, 
__ -0.5, 2, 1, 
__ 2, -0.5, 1, 
__ dp = -0.875415 , -0.872185, inside=1
__ 1 , 1 , 1, 0.666667, 0.0666667, 
__ 2, 2, 0.55, 
__ -0.5, 2, 1, 
__ 2, -0.5, 1, 
__ -0.5, -0.5, 0.55, 
__ dp = 0.933561 , 0.872185, inside=1
__ 1 , 2 , 1, 0.666667, 0.0666667, 
__ -0.5, 2, 1, 
__ 2, -0.5, 1, 
__ -0.5, -0.5, 0.55, 
__ 2, 2, 0.55, 
__ dp = 0.526541 , -0.872185, inside=0
__ 1 , 3 , 1, 0.666667, 0.0666667, 
__ 2, -0.5, 1, 
__ -0.5, -0.5, 0.55, 
__ 2, 2, 0.55, 
__ -0.5, 2, 1, 
__ dp = -0.41025 , 0.872185, inside=0
__ 2 , 0 , 1, 0.666667, 0.0666667, 
__ -0.5, -0.5, 0.55, 
__ 2, 2, 0.55, 
__ -0.5, 2, 0.55, 
__ -0.5, 2, 1, 
__ dp = -1.33333 , -2.5, inside=1
__ 2 , 1 , 1, 0.666667, 0.0666667, 
__ 2, 2, 0.55, 
__ -0.5, 2, 0.55, 
__ -0.5, 2, 1, 
__ -0.5, -0.5, 0.55, 
__ dp = 1.5 , 2.5, inside=1
__ 2 , 2 , 1, 0.666667, 0.0666667, 
__ -0.5, 2, 0.55, 
__ -0.5, 2, 1, 
__ -0.5, -0.5, 0.55, 
__ 2, 2, 0.55, 
__ dp = -0.41025 , -0.436092, inside=1
__ 2 , 3 , 1, 0.666667, 0.0666667, 
__ -0.5, 2, 1, 
__ -0.5, -0.5, 0.55, 
__ 2, 2, 0.55, 
__ -0.5, 2, 0.55, 
__ dp = -0.483333 , 0.45, inside=0
__ 3 , 0 , 1, 0.666667, 0.0666667, 
__ -0.5, -0.5, 0.55, 
__ 2, -0.5, 1, 
__ -0.5, 2, 1, 
__ -0.5, -0.5, 1, 
__ dp = -0.933333 , -0.45, inside=1
__ 3 , 1 , 1, 0.666667, 0.0666667, 
__ 2, -0.5, 1, 
__ -0.5, 2, 1, 
__ -0.5, -0.5, 1, 
__ -0.5, -0.5, 0.55, 
__ dp = 1.5 , 2.5, inside=1
__ 3 , 2 , 1, 0.666667, 0.0666667, 
__ -0.5, 2, 1, 
__ -0.5, -0.5, 1, 
__ -0.5, -0.5, 0.55, 
__ 2, -0.5, 1, 
__ dp = -1.16667 , -2.5, inside=1
__ 3 , 3 , 1, 0.666667, 0.0666667, 
__ -0.5, -0.5, 1, 
__ -0.5, -0.5, 0.55, 
__ 2, -0.5, 1, 
__ -0.5, 2, 1, 
__ dp = -0.933561 , 0.436092, inside=0
__ 4 , 0 , 1, 0.666667, 0.0666667, 
__ 2, 2, 0.55, 
__ -0.5, 2, 1, 
__ 2, -0.5, 1, 
__ 2, 2, 1, 
__ dp = -0.933333 , -0.45, inside=1
__ 4 , 1 , 1, 0.666667, 0.0666667, 
__ -0.5, 2, 1, 
__ 2, -0.5, 1, 
__ 2, 2, 1, 
__ 2, 2, 0.55, 
__ dp = 1 , 2.5, inside=1
__ 4 , 2 , 1, 0.666667, 0.0666667, 
__ 2, -0.5, 1, 
__ 2, 2, 1, 
__ 2, 2, 0.55, 
__ -0.5, 2, 1, 
__ dp = -1.33333 , -2.5, inside=1
__ 4 , 3 , 1, 0.666667, 0.0666667, 
__ 2, 2, 1, 
__ 2, 2, 0.55, 
__ -0.5, 2, 1, 
__ 2, -0.5, 1, 
__ dp = -0.875415 , 0.436092, inside=0
inside = 0
nijso, considering vertex  = 11
__ 0 , 0 , 1, 0.666667, 0.1, 
__ -0.5, -0.5, 0.55, 
__ 2, -0.5, 0.55, 
__ 2, 2, 0.55, 
__ 2, -0.5, 1, 
__ dp = -1 , -2.5, inside=1
__ 0 , 1 , 1, 0.666667, 0.1, 
__ 2, -0.5, 0.55, 
__ 2, 2, 0.55, 
__ 2, -0.5, 1, 
__ -0.5, -0.5, 0.55, 
__ dp = 0.494238 , 0.436092, inside=1
__ 0 , 2 , 1, 0.666667, 0.1, 
__ 2, 2, 0.55, 
__ 2, -0.5, 1, 
__ -0.5, -0.5, 0.55, 
__ 2, -0.5, 0.55, 
__ dp = -1.16667 , -2.5, inside=1
__ 0 , 3 , 1, 0.666667, 0.1, 
__ 2, -0.5, 1, 
__ -0.5, -0.5, 0.55, 
__ 2, -0.5, 0.55, 
__ 2, 2, 0.55, 
__ dp = -0.45 , 0.45, inside=0
__ 1 , 0 , 1, 0.666667, 0.1, 
__ -0.5, -0.5, 0.55, 
__ 2, 2, 0.55, 
__ -0.5, 2, 1, 
__ 2, -0.5, 1, 
__ dp = -0.843112 , -0.872185, inside=1
__ 1 , 1 , 1, 0.666667, 0.1, 
__ 2, 2, 0.55, 
__ -0.5, 2, 1, 
__ 2, -0.5, 1, 
__ -0.5, -0.5, 0.55, 
__ dp = 0.901258 , 0.872185, inside=1
__ 1 , 2 , 1, 0.666667, 0.1, 
__ -0.5, 2, 1, 
__ 2, -0.5, 1, 
__ -0.5, -0.5, 0.55, 
__ 2, 2, 0.55, 
__ dp = 0.494238 , -0.872185, inside=0
__ 1 , 3 , 1, 0.666667, 0.1, 
__ 2, -0.5, 1, 
__ -0.5, -0.5, 0.55, 
__ 2, 2, 0.55, 
__ -0.5, 2, 1, 
__ dp = -0.377947 , 0.872185, inside=0
__ 2 , 0 , 1, 0.666667, 0.1, 
__ -0.5, -0.5, 0.55, 
__ 2, 2, 0.55, 
__ -0.5, 2, 0.55, 
__ -0.5, 2, 1, 
__ dp = -1.33333 , -2.5, inside=1
__ 2 , 1 , 1, 0.666667, 0.1, 
__ 2, 2, 0.55, 
__ -0.5, 2, 0.55, 
__ -0.5, 2, 1, 
__ -0.5, -0.5, 0.55, 
__ dp = 1.5 , 2.5, inside=1
__ 2 , 2 , 1, 0.666667, 0.1, 
__ -0.5, 2, 0.55, 
__ -0.5, 2, 1, 
__ -0.5, -0.5, 0.55, 
__ 2, 2, 0.55, 
__ dp = -0.377947 , -0.436092, inside=1
__ 2 , 3 , 1, 0.666667, 0.1, 
__ -0.5, 2, 1, 
__ -0.5, -0.5, 0.55, 
__ 2, 2, 0.55, 
__ -0.5, 2, 0.55, 
__ dp = -0.45 , 0.45, inside=0
__ 3 , 0 , 1, 0.666667, 0.1, 
__ -0.5, -0.5, 0.55, 
__ 2, -0.5, 1, 
__ -0.5, 2, 1, 
__ -0.5, -0.5, 1, 
__ dp = -0.9 , -0.45, inside=1
__ 3 , 1 , 1, 0.666667, 0.1, 
__ 2, -0.5, 1, 
__ -0.5, 2, 1, 
__ -0.5, -0.5, 1, 
__ -0.5, -0.5, 0.55, 
__ dp = 1.5 , 2.5, inside=1
__ 3 , 2 , 1, 0.666667, 0.1, 
__ -0.5, 2, 1, 
__ -0.5, -0.5, 1, 
__ -0.5, -0.5, 0.55, 
__ 2, -0.5, 1, 
__ dp = -1.16667 , -2.5, inside=1
__ 3 , 3 , 1, 0.666667, 0.1, 
__ -0.5, -0.5, 1, 
__ -0.5, -0.5, 0.55, 
__ 2, -0.5, 1, 
__ -0.5, 2, 1, 
__ dp = -0.901258 , 0.436092, inside=0
__ 4 , 0 , 1, 0.666667, 0.1, 
__ 2, 2, 0.55, 
__ -0.5, 2, 1, 
__ 2, -0.5, 1, 
__ 2, 2, 1, 
__ dp = -0.9 , -0.45, inside=1
__ 4 , 1 , 1, 0.666667, 0.1, 
__ -0.5, 2, 1, 
__ 2, -0.5, 1, 
__ 2, 2, 1, 
__ 2, 2, 0.55, 
__ dp = 1 , 2.5, inside=1
__ 4 , 2 , 1, 0.666667, 0.1, 
__ 2, -0.5, 1, 
__ 2, 2, 1, 
__ 2, 2, 0.55, 
__ -0.5, 2, 1, 
__ dp = -1.33333 , -2.5, inside=1
__ 4 , 3 , 1, 0.666667, 0.1, 
__ 2, 2, 1, 
__ 2, 2, 0.55, 
__ -0.5, 2, 1, 
__ 2, -0.5, 1, 
__ dp = -0.843112 , 0.436092, inside=0
inside = 0
nijso, considering vertex  = 12
__ 0 , 0 , 1, 1, 0.0333333, 
__ -0.5, -0.5, 0.55, 
__ 2, -0.5, 0.55, 
__ 2, 2, 0.55, 
__ 2, -0.5, 1, 
__ dp = -1 , -2.5, inside=1
__ 0 , 1 , 1, 1, 0.0333333, 
__ 2, -0.5, 0.55, 
__ 2, 2, 0.55, 
__ 2, -0.5, 1, 
__ -0.5, -0.5, 0.55, 
__ dp = 0.500699 , 0.436092, inside=1
__ 0 , 2 , 1, 1, 0.0333333, 
__ 2, 2, 0.55, 
__ 2, -0.5, 1, 
__ -0.5, -0.5, 0.55, 
__ 2, -0.5, 0.55, 
__ dp = -1.5 , -2.5, inside=1
__ 0 , 3 , 1, 1, 0.0333333, 
__ 2, -0.5, 1, 
__ -0.5, -0.5, 0.55, 
__ 2, -0.5, 0.55, 
__ 2, 2, 0.55, 
__ dp = -0.516667 , 0.45, inside=0
__ 1 , 0 , 1, 1, 0.0333333, 
__ -0.5, -0.5, 0.55, 
__ 2, 2, 0.55, 
__ -0.5, 2, 1, 
__ 2, -0.5, 1, 
__ dp = -0.849573 , -0.872185, inside=1
__ 1 , 1 , 1, 1, 0.0333333, 
__ 2, 2, 0.55, 
__ -0.5, 2, 1, 
__ 2, -0.5, 1, 
__ -0.5, -0.5, 0.55, 
__ dp = 1.02401 , 0.872185, inside=1
__ 1 , 2 , 1, 1, 0.0333333, 
__ -0.5, 2, 1, 
__ 2, -0.5, 1, 
__ -0.5, -0.5, 0.55, 
__ 2, 2, 0.55, 
__ dp = 0.500699 , -0.872185, inside=0
__ 1 , 3 , 1, 1, 0.0333333, 
__ 2, -0.5, 1, 
__ -0.5, -0.5, 0.55, 
__ 2, 2, 0.55, 
__ -0.5, 2, 1, 
__ dp = -0.500699 , 0.872185, inside=0
__ 2 , 0 , 1, 1, 0.0333333, 
__ -0.5, -0.5, 0.55, 
__ 2, 2, 0.55, 
__ -0.5, 2, 0.55, 
__ -0.5, 2, 1, 
__ dp = -1 , -2.5, inside=1
__ 2 , 1 , 1, 1, 0.0333333, 
__ 2, 2, 0.55, 
__ -0.5, 2, 0.55, 
__ -0.5, 2, 1, 
__ -0.5, -0.5, 0.55, 
__ dp = 1.5 , 2.5, inside=1
__ 2 , 2 , 1, 1, 0.0333333, 
__ -0.5, 2, 0.55, 
__ -0.5, 2, 1, 
__ -0.5, -0.5, 0.55, 
__ 2, 2, 0.55, 
__ dp = -0.500699 , -0.436092, inside=1
__ 2 , 3 , 1, 1, 0.0333333, 
__ -0.5, 2, 1, 
__ -0.5, -0.5, 0.55, 
__ 2, 2, 0.55, 
__ -0.5, 2, 0.55, 
__ dp = -0.516667 , 0.45, inside=0
__ 3 , 0 , 1, 1, 0.0333333, 
__ -0.5, -0.5, 0.55, 
__ 2, -0.5, 1, 
__ -0.5, 2, 1, 
__ -0.5, -0.5, 1, 
__ dp = -0.966667 , -0.45, inside=1
__ 3 , 1 , 1, 1, 0.0333333, 
__ 2, -0.5, 1, 
__ -0.5, 2, 1, 
__ -0.5, -0.5, 1, 
__ -0.5, -0.5, 0.55, 
__ dp = 1.5 , 2.5, inside=1
__ 3 , 2 , 1, 1, 0.0333333, 
__ -0.5, 2, 1, 
__ -0.5, -0.5, 1, 
__ -0.5, -0.5, 0.55, 
__ 2, -0.5, 1, 
__ dp = -1.5 , -2.5, inside=1
__ 3 , 3 , 1, 1, 0.0333333, 
__ -0.5, -0.5, 1, 
__ -0.5, -0.5, 0.55, 
__ 2, -0.5, 1, 
__ -0.5, 2, 1, 
__ dp = -1.02401 , 0.436092, inside=0
__ 4 , 0 , 1, 1, 0.0333333, 
__ 2, 2, 0.55, 
__ -0.5, 2, 1, 
__ 2, -0.5, 1, 
__ 2, 2, 1, 
__ dp = -0.966667 , -0.45, inside=1
__ 4 , 1 , 1, 1, 0.0333333, 
__ -0.5, 2, 1, 
__ 2, -0.5, 1, 
__ 2, 2, 1, 
__ 2, 2, 0.55, 
__ dp = 1 , 2.5, inside=1
__ 4 , 2 , 1, 1, 0.0333333, 
__ 2, -0.5, 1, 
__ 2, 2, 1, 
__ 2, 2, 0.55, 
__ -0.5, 2, 1, 
__ dp = -1 , -2.5, inside=1
__ 4 , 3 , 1, 1, 0.0333333, 
__ 2, 2, 1, 
__ 2, 2, 0.55, 
__ -0.5, 2, 1, 
__ 2, -0.5, 1, 
__ dp = -0.849573 , 0.436092, inside=0
inside = 0
nijso, considering vertex  = 13
__ 0 , 0 , 1, 1, 0, 
__ -0.5, -0.5, 0.55, 
__ 2, -0.5, 0.55, 
__ 2, 2, 0.55, 
__ 2, -0.5, 1, 
__ dp = -1 , -2.5, inside=1
__ 0 , 1 , 1, 1, 0, 
__ 2, -0.5, 0.55, 
__ 2, 2, 0.55, 
__ 2, -0.5, 1, 
__ -0.5, -0.5, 0.55, 
__ dp = 0.533002 , 0.436092, inside=1
__ 0 , 2 , 1, 1, 0, 
__ 2, 2, 0.55, 
__ 2, -0.5, 1, 
__ -0.5, -0.5, 0.55, 
__ 2, -0.5, 0.55, 
__ dp = -1.5 , -2.5, inside=1
__ 0 , 3 , 1, 1, 0, 
__ 2, -0.5, 1, 
__ -0.5, -0.5, 0.55, 
__ 2, -0.5, 0.55, 
__ 2, 2, 0.55, 
__ dp = -0.55 , 0.45, inside=0
__ 1 , 0 , 1, 1, 0, 
__ -0.5, -0.5, 0.55, 
__ 2, 2, 0.55, 
__ -0.5, 2, 1, 
__ 2, -0.5, 1, 
__ dp = -0.881876 , -0.872185, inside=1
__ 1 , 1 , 1, 1, 0, 
__ 2, 2, 0.55, 
__ -0.5, 2, 1, 
__ 2, -0.5, 1, 
__ -0.5, -0.5, 0.55, 
__ dp = 1.05631 , 0.872185, inside=1
__ 1 , 2 , 1, 1, 0, 
__ -0.5, 2, 1, 
__ 2, -0.5, 1, 
__ -0.5, -0.5, 0.55, 
__ 2, 2, 0.55, 
__ dp = 0.533002 , -0.872185, inside=0
__ 1 , 3 , 1, 1, 0, 
__ 2, -0.5, 1, 
__ -0.5, -0.5, 0.55, 
__ 2, 2, 0.55, 
__ -0.5, 2, 1, 
__ dp = -0.533002 , 0.872185, inside=0
__ 2 , 0 , 1, 1, 0, 
__ -0.5, -0.5, 0.55, 
__ 2, 2, 0.55, 
__ -0.5, 2, 0.55, 
__ -0.5, 2, 1, 
__ dp = -1 , -2.5, inside=1
__ 2 , 1 , 1, 1, 0, 
__ 2, 2, 0.55, 
__ -0.5, 2, 0.55, 
__ -0.5, 2, 1, 
__ -0.5, -0.5, 0.55, 
__ dp = 1.5 , 2.5, inside=1
__ 2 , 2 , 1, 1, 0, 
__ -0.5, 2, 0.55, 
__ -0.5, 2, 1, 
__ -0.5, -0.5, 0.55, 
__ 2, 2, 0.55, 
__ dp = -0.533002 , -0.436092, inside=1
__ 2 , 3 , 1, 1, 0, 
__ -0.5, 2, 1, 
__ -0.5, -0.5, 0.55, 
__ 2, 2, 0.55, 
__ -0.5, 2, 0.55, 
__ dp = -0.55 , 0.45, inside=0
__ 3 , 0 , 1, 1, 0, 
__ -0.5, -0.5, 0.55, 
__ 2, -0.5, 1, 
__ -0.5, 2, 1, 
__ -0.5, -0.5, 1, 
__ dp = -1 , -0.45, inside=1
__ 3 , 1 , 1, 1, 0, 
__ 2, -0.5, 1, 
__ -0.5, 2, 1, 
__ -0.5, -0.5, 1, 
__ -0.5, -0.5, 0.55, 
__ dp = 1.5 , 2.5, inside=1
__ 3 , 2 , 1, 1, 0, 
__ -0.5, 2, 1, 
__ -0.5, -0.5, 1, 
__ -0.5, -0.5, 0.55, 
__ 2, -0.5, 1, 
__ dp = -1.5 , -2.5, inside=1
__ 3 , 3 , 1, 1, 0, 
__ -0.5, -0.5, 1, 
__ -0.5, -0.5, 0.55, 
__ 2, -0.5, 1, 
__ -0.5, 2, 1, 
__ dp = -1.05631 , 0.436092, inside=0
__ 4 , 0 , 1, 1, 0, 
__ 2, 2, 0.55, 
__ -0.5, 2, 1, 
__ 2, -0.5, 1, 
__ 2, 2, 1, 
__ dp = -1 , -0.45, inside=1
__ 4 , 1 , 1, 1, 0, 
__ -0.5, 2, 1, 
__ 2, -0.5, 1, 
__ 2, 2, 1, 
__ 2, 2, 0.55, 
__ dp = 1 , 2.5, inside=1
__ 4 , 2 , 1, 1, 0, 
__ 2, -0.5, 1, 
__ 2, 2, 1, 
__ 2, 2, 0.55, 
__ -0.5, 2, 1, 
__ dp = -1 , -2.5, inside=1
__ 4 , 3 , 1, 1, 0, 
__ 2, 2, 1, 
__ 2, 2, 0.55, 
__ -0.5, 2, 1, 
__ 2, -0.5, 1, 
__ dp = -0.881876 , 0.436092, inside=0
inside = 0
nijso, considering vertex  = 14
__ 0 , 0 , 1, 1, 0.0666667, 
__ -0.5, -0.5, 0.55, 
__ 2, -0.5, 0.55, 
__ 2, 2, 0.55, 
__ 2, -0.5, 1, 
__ dp = -1 , -2.5, inside=1
__ 0 , 1 , 1, 1, 0.0666667, 
__ 2, -0.5, 0.55, 
__ 2, 2, 0.55, 
__ 2, -0.5, 1, 
__ -0.5, -0.5, 0.55, 
__ dp = 0.468396 , 0.436092, inside=1
__ 0 , 2 , 1, 1, 0.0666667, 
__ 2, 2, 0.55, 
__ 2, -0.5, 1, 
__ -0.5, -0.5, 0.55, 
__ 2, -0.5, 0.55, 
__ dp = -1.5 , -2.5, inside=1
__ 0 , 3 , 1, 1, 0.0666667, 
__ 2, -0.5, 1, 
__ -0.5, -0.5, 0.55, 
__ 2, -0.5, 0.55, 
__ 2, 2, 0.55, 
__ dp = -0.483333 , 0.45, inside=0
__ 1 , 0 , 1, 1, 0.0666667, 
__ -0.5, -0.5, 0.55, 
__ 2, 2, 0.55, 
__ -0.5, 2, 1, 
__ 2, -0.5, 1, 
__ dp = -0.817269 , -0.872185, inside=1
__ 1 , 1 , 1, 1, 0.0666667, 
__ 2, 2, 0.55, 
__ -0.5, 2, 1, 
__ 2, -0.5, 1, 
__ -0.5, -0.5, 0.55, 
__ dp = 0.991706 , 0.872185, inside=1
__ 1 , 2 , 1, 1, 0.0666667, 
__ -0.5, 2, 1, 
__ 2, -0.5, 1, 
__ -0.5, -0.5, 0.55, 
__ 2, 2, 0.55, 
__ dp = 0.468396 , -0.872185, inside=0
__ 1 , 3 , 1, 1, 0.0666667, 
__ 2, -0.5, 1, 
__ -0.5, -0.5, 0.55, 
__ 2, 2, 0.55, 
__ -0.5, 2, 1, 
__ dp = -0.468396 , 0.872185, inside=0
__ 2 , 0 , 1, 1, 0.0666667, 
__ -0.5, -0.5, 0.55, 
__ 2, 2, 0.55, 
__ -0.5, 2, 0.55, 
__ -0.5, 2, 1, 
__ dp = -1 , -2.5, inside=1
__ 2 , 1 , 1, 1, 0.0666667, 
__ 2, 2, 0.55, 
__ -0.5, 2, 0.55, 
__ -0.5, 2, 1, 
__ -0.5, -0.5, 0.55, 
__ dp = 1.5 , 2.5, inside=1
__ 2 , 2 , 1, 1, 0.0666667, 
__ -0.5, 2, 0.55, 
__ -0.5, 2, 1, 
__ -0.5, -0.5, 0.55, 
__ 2, 2, 0.55, 
__ dp = -0.468396 , -0.436092, inside=1
__ 2 , 3 , 1, 1, 0.0666667, 
__ -0.5, 2, 1, 
__ -0.5, -0.5, 0.55, 
__ 2, 2, 0.55, 
__ -0.5, 2, 0.55, 
__ dp = -0.483333 , 0.45, inside=0
__ 3 , 0 , 1, 1, 0.0666667, 
__ -0.5, -0.5, 0.55, 
__ 2, -0.5, 1, 
__ -0.5, 2, 1, 
__ -0.5, -0.5, 1, 
__ dp = -0.933333 , -0.45, inside=1
__ 3 , 1 , 1, 1, 0.0666667, 
__ 2, -0.5, 1, 
__ -0.5, 2, 1, 
__ -0.5, -0.5, 1, 
__ -0.5, -0.5, 0.55, 
__ dp = 1.5 , 2.5, inside=1
__ 3 , 2 , 1, 1, 0.0666667, 
__ -0.5, 2, 1, 
__ -0.5, -0.5, 1, 
__ -0.5, -0.5, 0.55, 
__ 2, -0.5, 1, 
__ dp = -1.5 , -2.5, inside=1
__ 3 , 3 , 1, 1, 0.0666667, 
__ -0.5, -0.5, 1, 
__ -0.5, -0.5, 0.55, 
__ 2, -0.5, 1, 
__ -0.5, 2, 1, 
__ dp = -0.991706 , 0.436092, inside=0
__ 4 , 0 , 1, 1, 0.0666667, 
__ 2, 2, 0.55, 
__ -0.5, 2, 1, 
__ 2, -0.5, 1, 
__ 2, 2, 1, 
__ dp = -0.933333 , -0.45, inside=1
__ 4 , 1 , 1, 1, 0.0666667, 
__ -0.5, 2, 1, 
__ 2, -0.5, 1, 
__ 2, 2, 1, 
__ 2, 2, 0.55, 
__ dp = 1 , 2.5, inside=1
__ 4 , 2 , 1, 1, 0.0666667, 
__ 2, -0.5, 1, 
__ 2, 2, 1, 
__ 2, 2, 0.55, 
__ -0.5, 2, 1, 
__ dp = -1 , -2.5, inside=1
__ 4 , 3 , 1, 1, 0.0666667, 
__ 2, 2, 1, 
__ 2, 2, 0.55, 
__ -0.5, 2, 1, 
__ 2, -0.5, 1, 
__ dp = -0.817269 , 0.436092, inside=0
inside = 0
nijso, considering vertex  = 15
__ 0 , 0 , 1, 1, 0.1, 
__ -0.5, -0.5, 0.55, 
__ 2, -0.5, 0.55, 
__ 2, 2, 0.55, 
__ 2, -0.5, 1, 
__ dp = -1 , -2.5, inside=1
__ 0 , 1 , 1, 1, 0.1, 
__ 2, -0.5, 0.55, 
__ 2, 2, 0.55, 
__ 2, -0.5, 1, 
__ -0.5, -0.5, 0.55, 
__ dp = 0.436092 , 0.436092, inside=1
__ 0 , 2 , 1, 1, 0.1, 
__ 2, 2, 0.55, 
__ 2, -0.5, 1, 
__ -0.5, -0.5, 0.55, 
__ 2, -0.5, 0.55, 
__ dp = -1.5 , -2.5, inside=1
__ 0 , 3 , 1, 1, 0.1, 
__ 2, -0.5, 1, 
__ -0.5, -0.5, 0.55, 
__ 2, -0.5, 0.55, 
__ 2, 2, 0.55, 
__ dp = -0.45 , 0.45, inside=0
__ 1 , 0 , 1, 1, 0.1, 
__ -0.5, -0.5, 0.55, 
__ 2, 2, 0.55, 
__ -0.5, 2, 1, 
__ 2, -0.5, 1, 
__ dp = -0.784966 , -0.872185, inside=1
__ 1 , 1 , 1, 1, 0.1, 
__ 2, 2, 0.55, 
__ -0.5, 2, 1, 
__ 2, -0.5, 1, 
__ -0.5, -0.5, 0.55, 
__ dp = 0.959403 , 0.872185, inside=1
__ 1 , 2 , 1, 1, 0.1, 
__ -0.5, 2, 1, 
__ 2, -0.5, 1, 
__ -0.5, -0.5, 0.55, 
__ 2, 2, 0.55, 
__ dp = 0.436092 , -0.872185, inside=0
__ 1 , 3 , 1, 1, 0.1, 
__ 2, -0.5, 1, 
__ -0.5, -0.5, 0.55, 
__ 2, 2, 0.55, 
__ -0.5, 2, 1, 
__ dp = -0.436092 , 0.872185, inside=0
__ 2 , 0 , 1, 1, 0.1, 
__ -0.5, -0.5, 0.55, 
__ 2, 2, 0.55, 
__ -0.5, 2, 0.55, 
__ -0.5, 2, 1, 
__ dp = -1 , -2.5, inside=1
__ 2 , 1 , 1, 1, 0.1, 
__ 2, 2, 0.55, 
__ -0.5, 2, 0.55, 
__ -0.5, 2, 1, 
__ -0.5, -0.5, 0.55, 
__ dp = 1.5 , 2.5, inside=1
__ 2 , 2 , 1, 1, 0.1, 
__ -0.5, 2, 0.55, 
__ -0.5, 2, 1, 
__ -0.5, -0.5, 0.55, 
__ 2, 2, 0.55, 
__ dp = -0.436092 , -0.436092, inside=1
__ 2 , 3 , 1, 1, 0.1, 
__ -0.5, 2, 1, 
__ -0.5, -0.5, 0.55, 
__ 2, 2, 0.55, 
__ -0.5, 2, 0.55, 
__ dp = -0.45 , 0.45, inside=0
__ 3 , 0 , 1, 1, 0.1, 
__ -0.5, -0.5, 0.55, 
__ 2, -0.5, 1, 
__ -0.5, 2, 1, 
__ -0.5, -0.5, 1, 
__ dp = -0.9 , -0.45, inside=1
__ 3 , 1 , 1, 1, 0.1, 
__ 2, -0.5, 1, 
__ -0.5, 2, 1, 
__ -0.5, -0.5, 1, 
__ -0.5, -0.5, 0.55, 
__ dp = 1.5 , 2.5, inside=1
__ 3 , 2 , 1, 1, 0.1, 
__ -0.5, 2, 1, 
__ -0.5, -0.5, 1, 
__ -0.5, -0.5, 0.55, 
__ 2, -0.5, 1, 
__ dp = -1.5 , -2.5, inside=1
__ 3 , 3 , 1, 1, 0.1, 
__ -0.5, -0.5, 1, 
__ -0.5, -0.5, 0.55, 
__ 2, -0.5, 1, 
__ -0.5, 2, 1, 
__ dp = -0.959403 , 0.436092, inside=0
__ 4 , 0 , 1, 1, 0.1, 
__ 2, 2, 0.55, 
__ -0.5, 2, 1, 
__ 2, -0.5, 1, 
__ 2, 2, 1, 
__ dp = -0.9 , -0.45, inside=1
__ 4 , 1 , 1, 1, 0.1, 
__ -0.5, 2, 1, 
__ 2, -0.5, 1, 
__ 2, 2, 1, 
__ 2, 2, 0.55, 
__ dp = 1 , 2.5, inside=1
__ 4 , 2 , 1, 1, 0.1, 
__ 2, -0.5, 1, 
__ 2, 2, 1, 
__ 2, 2, 0.55, 
__ -0.5, 2, 1, 
__ dp = -1 , -2.5, inside=1
__ 4 , 3 , 1, 1, 0.1, 
__ 2, 2, 1, 
__ 2, 2, 0.55, 
__ -0.5, 2, 1, 
__ 2, -0.5, 1, 
__ dp = -0.784966 , 0.436092, inside=0
inside = 0
nijso, marker = 1 , 1
nijso, considering marker = 1
nijso, considering vertex  = 0
__ 0 , 0 , 0, 1, 0, 
__ -0.5, -0.5, 0.55, 
__ 2, -0.5, 0.55, 
__ 2, 2, 0.55, 
__ 2, -0.5, 1, 
__ dp = -2 , -2.5, inside=1
__ 0 , 1 , 0, 1, 0, 
__ 2, -0.5, 0.55, 
__ 2, 2, 0.55, 
__ 2, -0.5, 1, 
__ -0.5, -0.5, 0.55, 
__ dp = 0.358565 , 0.436092, inside=1
__ 0 , 2 , 0, 1, 0, 
__ 2, 2, 0.55, 
__ 2, -0.5, 1, 
__ -0.5, -0.5, 0.55, 
__ 2, -0.5, 0.55, 
__ dp = -1.5 , -2.5, inside=1
__ 0 , 3 , 0, 1, 0, 
__ 2, -0.5, 1, 
__ -0.5, -0.5, 0.55, 
__ 2, -0.5, 0.55, 
__ 2, 2, 0.55, 
__ dp = -0.55 , 0.45, inside=0
__ 1 , 0 , 0, 1, 0, 
__ -0.5, -0.5, 0.55, 
__ 2, 2, 0.55, 
__ -0.5, 2, 1, 
__ 2, -0.5, 1, 
__ dp = -1.05631 , -0.872185, inside=1
__ 1 , 1 , 0, 1, 0, 
__ 2, 2, 0.55, 
__ -0.5, 2, 1, 
__ 2, -0.5, 1, 
__ -0.5, -0.5, 0.55, 
__ dp = 0.881876 , 0.872185, inside=1
__ 1 , 2 , 0, 1, 0, 
__ -0.5, 2, 1, 
__ 2, -0.5, 1, 
__ -0.5, -0.5, 0.55, 
__ 2, 2, 0.55, 
__ dp = 0.358565 , -0.872185, inside=0
__ 1 , 3 , 0, 1, 0, 
__ 2, -0.5, 1, 
__ -0.5, -0.5, 0.55, 
__ 2, 2, 0.55, 
__ -0.5, 2, 1, 
__ dp = -0.707439 , 0.872185, inside=0
__ 2 , 0 , 0, 1, 0, 
__ -0.5, -0.5, 0.55, 
__ 2, 2, 0.55, 
__ -0.5, 2, 0.55, 
__ -0.5, 2, 1, 
__ dp = -1 , -2.5, inside=1
__ 2 , 1 , 0, 1, 0, 
__ 2, 2, 0.55, 
__ -0.5, 2, 0.55, 
__ -0.5, 2, 1, 
__ -0.5, -0.5, 0.55, 
__ dp = 0.5 , 2.5, inside=1
__ 2 , 2 , 0, 1, 0, 
__ -0.5, 2, 0.55, 
__ -0.5, 2, 1, 
__ -0.5, -0.5, 0.55, 
__ 2, 2, 0.55, 
__ dp = -0.707439 , -0.436092, inside=1
__ 2 , 3 , 0, 1, 0, 
__ -0.5, 2, 1, 
__ -0.5, -0.5, 0.55, 
__ 2, 2, 0.55, 
__ -0.5, 2, 0.55, 
__ dp = -0.55 , 0.45, inside=0
__ 3 , 0 , 0, 1, 0, 
__ -0.5, -0.5, 0.55, 
__ 2, -0.5, 1, 
__ -0.5, 2, 1, 
__ -0.5, -0.5, 1, 
__ dp = -1 , -0.45, inside=1
__ 3 , 1 , 0, 1, 0, 
__ 2, -0.5, 1, 
__ -0.5, 2, 1, 
__ -0.5, -0.5, 1, 
__ -0.5, -0.5, 0.55, 
__ dp = 0.5 , 2.5, inside=1
__ 3 , 2 , 0, 1, 0, 
__ -0.5, 2, 1, 
__ -0.5, -0.5, 1, 
__ -0.5, -0.5, 0.55, 
__ 2, -0.5, 1, 
__ dp = -1.5 , -2.5, inside=1
__ 3 , 3 , 0, 1, 0, 
__ -0.5, -0.5, 1, 
__ -0.5, -0.5, 0.55, 
__ 2, -0.5, 1, 
__ -0.5, 2, 1, 
__ dp = -0.881876 , 0.436092, inside=0
__ 4 , 0 , 0, 1, 0, 
__ 2, 2, 0.55, 
__ -0.5, 2, 1, 
__ 2, -0.5, 1, 
__ 2, 2, 1, 
__ dp = -1 , -0.45, inside=1
__ 4 , 1 , 0, 1, 0, 
__ -0.5, 2, 1, 
__ 2, -0.5, 1, 
__ 2, 2, 1, 
__ 2, 2, 0.55, 
__ dp = 2 , 2.5, inside=1
__ 4 , 2 , 0, 1, 0, 
__ 2, -0.5, 1, 
__ 2, 2, 1, 
__ 2, 2, 0.55, 
__ -0.5, 2, 1, 
__ dp = -1 , -2.5, inside=1
__ 4 , 3 , 0, 1, 0, 
__ 2, 2, 1, 
__ 2, 2, 0.55, 
__ -0.5, 2, 1, 
__ 2, -0.5, 1, 
__ dp = -1.05631 , 0.436092, inside=0
inside = 0
nijso, considering vertex  = 1
__ 0 , 0 , 0, 1, 0.0333333, 
__ -0.5, -0.5, 0.55, 
__ 2, -0.5, 0.55, 
__ 2, 2, 0.55, 
__ 2, -0.5, 1, 
__ dp = -2 , -2.5, inside=1
__ 0 , 1 , 0, 1, 0.0333333, 
__ 2, -0.5, 0.55, 
__ 2, 2, 0.55, 
__ 2, -0.5, 1, 
__ -0.5, -0.5, 0.55, 
__ dp = 0.326262 , 0.436092, inside=1
__ 0 , 2 , 0, 1, 0.0333333, 
__ 2, 2, 0.55, 
__ 2, -0.5, 1, 
__ -0.5, -0.5, 0.55, 
__ 2, -0.5, 0.55, 
__ dp = -1.5 , -2.5, inside=1
__ 0 , 3 , 0, 1, 0.0333333, 
__ 2, -0.5, 1, 
__ -0.5, -0.5, 0.55, 
__ 2, -0.5, 0.55, 
__ 2, 2, 0.55, 
__ dp = -0.516667 , 0.45, inside=0
__ 1 , 0 , 0, 1, 0.0333333, 
__ -0.5, -0.5, 0.55, 
__ 2, 2, 0.55, 
__ -0.5, 2, 1, 
__ 2, -0.5, 1, 
__ dp = -1.02401 , -0.872185, inside=1
__ 1 , 1 , 0, 1, 0.0333333, 
__ 2, 2, 0.55, 
__ -0.5, 2, 1, 
__ 2, -0.5, 1, 
__ -0.5, -0.5, 0.55, 
__ dp = 0.849573 , 0.872185, inside=1
__ 1 , 2 , 0, 1, 0.0333333, 
__ -0.5, 2, 1, 
__ 2, -0.5, 1, 
__ -0.5, -0.5, 0.55, 
__ 2, 2, 0.55, 
__ dp = 0.326262 , -0.872185, inside=0
__ 1 , 3 , 0, 1, 0.0333333, 
__ 2, -0.5, 1, 
__ -0.5, -0.5, 0.55, 
__ 2, 2, 0.55, 
__ -0.5, 2, 1, 
__ dp = -0.675136 , 0.872185, inside=0
__ 2 , 0 , 0, 1, 0.0333333, 
__ -0.5, -0.5, 0.55, 
__ 2, 2, 0.55, 
__ -0.5, 2, 0.55, 
__ -0.5, 2, 1, 
__ dp = -1 , -2.5, inside=1
__ 2 , 1 , 0, 1, 0.0333333, 
__ 2, 2, 0.55, 
__ -0.5, 2, 0.55, 
__ -0.5, 2, 1, 
__ -0.5, -0.5, 0.55, 
__ dp = 0.5 , 2.5, inside=1
__ 2 , 2 , 0, 1, 0.0333333, 
__ -0.5, 2, 0.55, 
__ -0.5, 2, 1, 
__ -0.5, -0.5, 0.55, 
__ 2, 2, 0.55, 
__ dp = -0.675136 , -0.436092, inside=1
__ 2 , 3 , 0, 1, 0.0333333, 
__ -0.5, 2, 1, 
__ -0.5, -0.5, 0.55, 
__ 2, 2, 0.55, 
__ -0.5, 2, 0.55, 
__ dp = -0.516667 , 0.45, inside=0
__ 3 , 0 , 0, 1, 0.0333333, 
__ -0.5, -0.5, 0.55, 
__ 2, -0.5, 1, 
__ -0.5, 2, 1, 
__ -0.5, -0.5, 1, 
__ dp = -0.966667 , -0.45, inside=1
__ 3 , 1 , 0, 1, 0.0333333, 
__ 2, -0.5, 1, 
__ -0.5, 2, 1, 
__ -0.5, -0.5, 1, 
__ -0.5, -0.5, 0.55, 
__ dp = 0.5 , 2.5, inside=1
__ 3 , 2 , 0, 1, 0.0333333, 
__ -0.5, 2, 1, 
__ -0.5, -0.5, 1, 
__ -0.5, -0.5, 0.55, 
__ 2, -0.5, 1, 
__ dp = -1.5 , -2.5, inside=1
__ 3 , 3 , 0, 1, 0.0333333, 
__ -0.5, -0.5, 1, 
__ -0.5, -0.5, 0.55, 
__ 2, -0.5, 1, 
__ -0.5, 2, 1, 
__ dp = -0.849573 , 0.436092, inside=0
__ 4 , 0 , 0, 1, 0.0333333, 
__ 2, 2, 0.55, 
__ -0.5, 2, 1, 
__ 2, -0.5, 1, 
__ 2, 2, 1, 
__ dp = -0.966667 , -0.45, inside=1
__ 4 , 1 , 0, 1, 0.0333333, 
__ -0.5, 2, 1, 
__ 2, -0.5, 1, 
__ 2, 2, 1, 
__ 2, 2, 0.55, 
__ dp = 2 , 2.5, inside=1
__ 4 , 2 , 0, 1, 0.0333333, 
__ 2, -0.5, 1, 
__ 2, 2, 1, 
__ 2, 2, 0.55, 
__ -0.5, 2, 1, 
__ dp = -1 , -2.5, inside=1
__ 4 , 3 , 0, 1, 0.0333333, 
__ 2, 2, 1, 
__ 2, 2, 0.55, 
__ -0.5, 2, 1, 
__ 2, -0.5, 1, 
__ dp = -1.02401 , 0.436092, inside=0
inside = 0
nijso, considering vertex  = 2
__ 0 , 0 , 0, 0.666667, 0.0333333, 
__ -0.5, -0.5, 0.55, 
__ 2, -0.5, 0.55, 
__ 2, 2, 0.55, 
__ 2, -0.5, 1, 
__ dp = -2 , -2.5, inside=1
__ 0 , 1 , 0, 0.666667, 0.0333333, 
__ 2, -0.5, 0.55, 
__ 2, 2, 0.55, 
__ 2, -0.5, 1, 
__ -0.5, -0.5, 0.55, 
__ dp = 0.384407 , 0.436092, inside=1
__ 0 , 2 , 0, 0.666667, 0.0333333, 
__ 2, 2, 0.55, 
__ 2, -0.5, 1, 
__ -0.5, -0.5, 0.55, 
__ 2, -0.5, 0.55, 
__ dp = -1.16667 , -2.5, inside=1
__ 0 , 3 , 0, 0.666667, 0.0333333, 
__ 2, -0.5, 1, 
__ -0.5, -0.5, 0.55, 
__ 2, -0.5, 0.55, 
__ 2, 2, 0.55, 
__ dp = -0.516667 , 0.45, inside=0
__ 1 , 0 , 0, 0.666667, 0.0333333, 
__ -0.5, -0.5, 0.55, 
__ 2, 2, 0.55, 
__ -0.5, 2, 1, 
__ 2, -0.5, 1, 
__ dp = -1.08216 , -0.872185, inside=1
__ 1 , 1 , 0, 0.666667, 0.0333333, 
__ 2, 2, 0.55, 
__ -0.5, 2, 1, 
__ 2, -0.5, 1, 
__ -0.5, -0.5, 0.55, 
__ dp = 0.791427 , 0.872185, inside=1
__ 1 , 2 , 0, 0.666667, 0.0333333, 
__ -0.5, 2, 1, 
__ 2, -0.5, 1, 
__ -0.5, -0.5, 0.55, 
__ 2, 2, 0.55, 
__ dp = 0.384407 , -0.872185, inside=0
__ 1 , 3 , 0, 0.666667, 0.0333333, 
__ 2, -0.5, 1, 
__ -0.5, -0.5, 0.55, 
__ 2, 2, 0.55, 
__ -0.5, 2, 1, 
__ dp = -0.61699 , 0.872185, inside=0
__ 2 , 0 , 0, 0.666667, 0.0333333, 
__ -0.5, -0.5, 0.55, 
__ 2, 2, 0.55, 
__ -0.5, 2, 0.55, 
__ -0.5, 2, 1, 
__ dp = -1.33333 , -2.5, inside=1
__ 2 , 1 , 0, 0.666667, 0.0333333, 
__ 2, 2, 0.55, 
__ -0.5, 2, 0.55, 
__ -0.5, 2, 1, 
__ -0.5, -0.5, 0.55, 
__ dp = 0.5 , 2.5, inside=1
__ 2 , 2 , 0, 0.666667, 0.0333333, 
__ -0.5, 2, 0.55, 
__ -0.5, 2, 1, 
__ -0.5, -0.5, 0.55, 
__ 2, 2, 0.55, 
__ dp = -0.61699 , -0.436092, inside=1
__ 2 , 3 , 0, 0.666667, 0.0333333, 
__ -0.5, 2, 1, 
__ -0.5, -0.5, 0.55, 
__ 2, 2, 0.55, 
__ -0.5, 2, 0.55, 
__ dp = -0.516667 , 0.45, inside=0
__ 3 , 0 , 0, 0.666667, 0.0333333, 
__ -0.5, -0.5, 0.55, 
__ 2, -0.5, 1, 
__ -0.5, 2, 1, 
__ -0.5, -0.5, 1, 
__ dp = -0.966667 , -0.45, inside=1
__ 3 , 1 , 0, 0.666667, 0.0333333, 
__ 2, -0.5, 1, 
__ -0.5, 2, 1, 
__ -0.5, -0.5, 1, 
__ -0.5, -0.5, 0.55, 
__ dp = 0.5 , 2.5, inside=1
__ 3 , 2 , 0, 0.666667, 0.0333333, 
__ -0.5, 2, 1, 
__ -0.5, -0.5, 1, 
__ -0.5, -0.5, 0.55, 
__ 2, -0.5, 1, 
__ dp = -1.16667 , -2.5, inside=1
__ 3 , 3 , 0, 0.666667, 0.0333333, 
__ -0.5, -0.5, 1, 
__ -0.5, -0.5, 0.55, 
__ 2, -0.5, 1, 
__ -0.5, 2, 1, 
__ dp = -0.791427 , 0.436092, inside=0
__ 4 , 0 , 0, 0.666667, 0.0333333, 
__ 2, 2, 0.55, 
__ -0.5, 2, 1, 
__ 2, -0.5, 1, 
__ 2, 2, 1, 
__ dp = -0.966667 , -0.45, inside=1
__ 4 , 1 , 0, 0.666667, 0.0333333, 
__ -0.5, 2, 1, 
__ 2, -0.5, 1, 
__ 2, 2, 1, 
__ 2, 2, 0.55, 
__ dp = 2 , 2.5, inside=1
__ 4 , 2 , 0, 0.666667, 0.0333333, 
__ 2, -0.5, 1, 
__ 2, 2, 1, 
__ 2, 2, 0.55, 
__ -0.5, 2, 1, 
__ dp = -1.33333 , -2.5, inside=1
__ 4 , 3 , 0, 0.666667, 0.0333333, 
__ 2, 2, 1, 
__ 2, 2, 0.55, 
__ -0.5, 2, 1, 
__ 2, -0.5, 1, 
__ dp = -1.08216 , 0.436092, inside=0
inside = 0
nijso, considering vertex  = 3
__ 0 , 0 , 0, 0.666667, 0, 
__ -0.5, -0.5, 0.55, 
__ 2, -0.5, 0.55, 
__ 2, 2, 0.55, 
__ 2, -0.5, 1, 
__ dp = -2 , -2.5, inside=1
__ 0 , 1 , 0, 0.666667, 0, 
__ 2, -0.5, 0.55, 
__ 2, 2, 0.55, 
__ 2, -0.5, 1, 
__ -0.5, -0.5, 0.55, 
__ dp = 0.41671 , 0.436092, inside=1
__ 0 , 2 , 0, 0.666667, 0, 
__ 2, 2, 0.55, 
__ 2, -0.5, 1, 
__ -0.5, -0.5, 0.55, 
__ 2, -0.5, 0.55, 
__ dp = -1.16667 , -2.5, inside=1
__ 0 , 3 , 0, 0.666667, 0, 
__ 2, -0.5, 1, 
__ -0.5, -0.5, 0.55, 
__ 2, -0.5, 0.55, 
__ 2, 2, 0.55, 
__ dp = -0.55 , 0.45, inside=0
__ 1 , 0 , 0, 0.666667, 0, 
__ -0.5, -0.5, 0.55, 
__ 2, 2, 0.55, 
__ -0.5, 2, 1, 
__ 2, -0.5, 1, 
__ dp = -1.11446 , -0.872185, inside=1
__ 1 , 1 , 0, 0.666667, 0, 
__ 2, 2, 0.55, 
__ -0.5, 2, 1, 
__ 2, -0.5, 1, 
__ -0.5, -0.5, 0.55, 
__ dp = 0.82373 , 0.872185, inside=1
__ 1 , 2 , 0, 0.666667, 0, 
__ -0.5, 2, 1, 
__ 2, -0.5, 1, 
__ -0.5, -0.5, 0.55, 
__ 2, 2, 0.55, 
__ dp = 0.41671 , -0.872185, inside=0
__ 1 , 3 , 0, 0.666667, 0, 
__ 2, -0.5, 1, 
__ -0.5, -0.5, 0.55, 
__ 2, 2, 0.55, 
__ -0.5, 2, 1, 
__ dp = -0.649293 , 0.872185, inside=0
__ 2 , 0 , 0, 0.666667, 0, 
__ -0.5, -0.5, 0.55, 
__ 2, 2, 0.55, 
__ -0.5, 2, 0.55, 
__ -0.5, 2, 1, 
__ dp = -1.33333 , -2.5, inside=1
__ 2 , 1 , 0, 0.666667, 0, 
__ 2, 2, 0.55, 
__ -0.5, 2, 0.55, 
__ -0.5, 2, 1, 
__ -0.5, -0.5, 0.55, 
__ dp = 0.5 , 2.5, inside=1
__ 2 , 2 , 0, 0.666667, 0, 
__ -0.5, 2, 0.55, 
__ -0.5, 2, 1, 
__ -0.5, -0.5, 0.55, 
__ 2, 2, 0.55, 
__ dp = -0.649293 , -0.436092, inside=1
__ 2 , 3 , 0, 0.666667, 0, 
__ -0.5, 2, 1, 
__ -0.5, -0.5, 0.55, 
__ 2, 2, 0.55, 
__ -0.5, 2, 0.55, 
__ dp = -0.55 , 0.45, inside=0
__ 3 , 0 , 0, 0.666667, 0, 
__ -0.5, -0.5, 0.55, 
__ 2, -0.5, 1, 
__ -0.5, 2, 1, 
__ -0.5, -0.5, 1, 
__ dp = -1 , -0.45, inside=1
__ 3 , 1 , 0, 0.666667, 0, 
__ 2, -0.5, 1, 
__ -0.5, 2, 1, 
__ -0.5, -0.5, 1, 
__ -0.5, -0.5, 0.55, 
__ dp = 0.5 , 2.5, inside=1
__ 3 , 2 , 0, 0.666667, 0, 
__ -0.5, 2, 1, 
__ -0.5, -0.5, 1, 
__ -0.5, -0.5, 0.55, 
__ 2, -0.5, 1, 
__ dp = -1.16667 , -2.5, inside=1
__ 3 , 3 , 0, 0.666667, 0, 
__ -0.5, -0.5, 1, 
__ -0.5, -0.5, 0.55, 
__ 2, -0.5, 1, 
__ -0.5, 2, 1, 
__ dp = -0.82373 , 0.436092, inside=0
__ 4 , 0 , 0, 0.666667, 0, 
__ 2, 2, 0.55, 
__ -0.5, 2, 1, 
__ 2, -0.5, 1, 
__ 2, 2, 1, 
__ dp = -1 , -0.45, inside=1
__ 4 , 1 , 0, 0.666667, 0, 
__ -0.5, 2, 1, 
__ 2, -0.5, 1, 
__ 2, 2, 1, 
__ 2, 2, 0.55, 
__ dp = 2 , 2.5, inside=1
__ 4 , 2 , 0, 0.666667, 0, 
__ 2, -0.5, 1, 
__ 2, 2, 1, 
__ 2, 2, 0.55, 
__ -0.5, 2, 1, 
__ dp = -1.33333 , -2.5, inside=1
__ 4 , 3 , 0, 0.666667, 0, 
__ 2, 2, 1, 
__ 2, 2, 0.55, 
__ -0.5, 2, 1, 
__ 2, -0.5, 1, 
__ dp = -1.11446 , 0.436092, inside=0
inside = 0
nijso, considering vertex  = 4
__ 0 , 0 , 0, 1, 0.0666667, 
__ -0.5, -0.5, 0.55, 
__ 2, -0.5, 0.55, 
__ 2, 2, 0.55, 
__ 2, -0.5, 1, 
__ dp = -2 , -2.5, inside=1
__ 0 , 1 , 0, 1, 0.0666667, 
__ 2, -0.5, 0.55, 
__ 2, 2, 0.55, 
__ 2, -0.5, 1, 
__ -0.5, -0.5, 0.55, 
__ dp = 0.293959 , 0.436092, inside=1
__ 0 , 2 , 0, 1, 0.0666667, 
__ 2, 2, 0.55, 
__ 2, -0.5, 1, 
__ -0.5, -0.5, 0.55, 
__ 2, -0.5, 0.55, 
__ dp = -1.5 , -2.5, inside=1
__ 0 , 3 , 0, 1, 0.0666667, 
__ 2, -0.5, 1, 
__ -0.5, -0.5, 0.55, 
__ 2, -0.5, 0.55, 
__ 2, 2, 0.55, 
__ dp = -0.483333 , 0.45, inside=0
__ 1 , 0 , 0, 1, 0.0666667, 
__ -0.5, -0.5, 0.55, 
__ 2, 2, 0.55, 
__ -0.5, 2, 1, 
__ 2, -0.5, 1, 
__ dp = -0.991706 , -0.872185, inside=1
__ 1 , 1 , 0, 1, 0.0666667, 
__ 2, 2, 0.55, 
__ -0.5, 2, 1, 
__ 2, -0.5, 1, 
__ -0.5, -0.5, 0.55, 
__ dp = 0.817269 , 0.872185, inside=1
__ 1 , 2 , 0, 1, 0.0666667, 
__ -0.5, 2, 1, 
__ 2, -0.5, 1, 
__ -0.5, -0.5, 0.55, 
__ 2, 2, 0.55, 
__ dp = 0.293959 , -0.872185, inside=0
__ 1 , 3 , 0, 1, 0.0666667, 
__ 2, -0.5, 1, 
__ -0.5, -0.5, 0.55, 
__ 2, 2, 0.55, 
__ -0.5, 2, 1, 
__ dp = -0.642832 , 0.872185, inside=0
__ 2 , 0 , 0, 1, 0.0666667, 
__ -0.5, -0.5, 0.55, 
__ 2, 2, 0.55, 
__ -0.5, 2, 0.55, 
__ -0.5, 2, 1, 
__ dp = -1 , -2.5, inside=1
__ 2 , 1 , 0, 1, 0.0666667, 
__ 2, 2, 0.55, 
__ -0.5, 2, 0.55, 
__ -0.5, 2, 1, 
__ -0.5, -0.5, 0.55, 
__ dp = 0.5 , 2.5, inside=1
__ 2 , 2 , 0, 1, 0.0666667, 
__ -0.5, 2, 0.55, 
__ -0.5, 2, 1, 
__ -0.5, -0.5, 0.55, 
__ 2, 2, 0.55, 
__ dp = -0.642832 , -0.436092, inside=1
__ 2 , 3 , 0, 1, 0.0666667, 
__ -0.5, 2, 1, 
__ -0.5, -0.5, 0.55, 
__ 2, 2, 0.55, 
__ -0.5, 2, 0.55, 
__ dp = -0.483333 , 0.45, inside=0
__ 3 , 0 , 0, 1, 0.0666667, 
__ -0.5, -0.5, 0.55, 
__ 2, -0.5, 1, 
__ -0.5, 2, 1, 
__ -0.5, -0.5, 1, 
__ dp = -0.933333 , -0.45, inside=1
__ 3 , 1 , 0, 1, 0.0666667, 
__ 2, -0.5, 1, 
__ -0.5, 2, 1, 
__ -0.5, -0.5, 1, 
__ -0.5, -0.5, 0.55, 
__ dp = 0.5 , 2.5, inside=1
__ 3 , 2 , 0, 1, 0.0666667, 
__ -0.5, 2, 1, 
__ -0.5, -0.5, 1, 
__ -0.5, -0.5, 0.55, 
__ 2, -0.5, 1, 
__ dp = -1.5 , -2.5, inside=1
__ 3 , 3 , 0, 1, 0.0666667, 
__ -0.5, -0.5, 1, 
__ -0.5, -0.5, 0.55, 
__ 2, -0.5, 1, 
__ -0.5, 2, 1, 
__ dp = -0.817269 , 0.436092, inside=0
__ 4 , 0 , 0, 1, 0.0666667, 
__ 2, 2, 0.55, 
__ -0.5, 2, 1, 
__ 2, -0.5, 1, 
__ 2, 2, 1, 
__ dp = -0.933333 , -0.45, inside=1
__ 4 , 1 , 0, 1, 0.0666667, 
__ -0.5, 2, 1, 
__ 2, -0.5, 1, 
__ 2, 2, 1, 
__ 2, 2, 0.55, 
__ dp = 2 , 2.5, inside=1
__ 4 , 2 , 0, 1, 0.0666667, 
__ 2, -0.5, 1, 
__ 2, 2, 1, 
__ 2, 2, 0.55, 
__ -0.5, 2, 1, 
__ dp = -1 , -2.5, inside=1
__ 4 , 3 , 0, 1, 0.0666667, 
__ 2, 2, 1, 
__ 2, 2, 0.55, 
__ -0.5, 2, 1, 
__ 2, -0.5, 1, 
__ dp = -0.991706 , 0.436092, inside=0
inside = 0
nijso, considering vertex  = 5
__ 0 , 0 , 0, 0.666667, 0.0666667, 
__ -0.5, -0.5, 0.55, 
__ 2, -0.5, 0.55, 
__ 2, 2, 0.55, 
__ 2, -0.5, 1, 
__ dp = -2 , -2.5, inside=1
__ 0 , 1 , 0, 0.666667, 0.0666667, 
__ 2, -0.5, 0.55, 
__ 2, 2, 0.55, 
__ 2, -0.5, 1, 
__ -0.5, -0.5, 0.55, 
__ dp = 0.352104 , 0.436092, inside=1
__ 0 , 2 , 0, 0.666667, 0.0666667, 
__ 2, 2, 0.55, 
__ 2, -0.5, 1, 
__ -0.5, -0.5, 0.55, 
__ 2, -0.5, 0.55, 
__ dp = -1.16667 , -2.5, inside=1
__ 0 , 3 , 0, 0.666667, 0.0666667, 
__ 2, -0.5, 1, 
__ -0.5, -0.5, 0.55, 
__ 2, -0.5, 0.55, 
__ 2, 2, 0.55, 
__ dp = -0.483333 , 0.45, inside=0
__ 1 , 0 , 0, 0.666667, 0.0666667, 
__ -0.5, -0.5, 0.55, 
__ 2, 2, 0.55, 
__ -0.5, 2, 1, 
__ 2, -0.5, 1, 
__ dp = -1.04985 , -0.872185, inside=1
__ 1 , 1 , 0, 0.666667, 0.0666667, 
__ 2, 2, 0.55, 
__ -0.5, 2, 1, 
__ 2, -0.5, 1, 
__ -0.5, -0.5, 0.55, 
__ dp = 0.759124 , 0.872185, inside=1
__ 1 , 2 , 0, 0.666667, 0.0666667, 
__ -0.5, 2, 1, 
__ 2, -0.5, 1, 
__ -0.5, -0.5, 0.55, 
__ 2, 2, 0.55, 
__ dp = 0.352104 , -0.872185, inside=0
__ 1 , 3 , 0, 0.666667, 0.0666667, 
__ 2, -0.5, 1, 
__ -0.5, -0.5, 0.55, 
__ 2, 2, 0.55, 
__ -0.5, 2, 1, 
__ dp = -0.584687 , 0.872185, inside=0
__ 2 , 0 , 0, 0.666667, 0.0666667, 
__ -0.5, -0.5, 0.55, 
__ 2, 2, 0.55, 
__ -0.5, 2, 0.55, 
__ -0.5, 2, 1, 
__ dp = -1.33333 , -2.5, inside=1
__ 2 , 1 , 0, 0.666667, 0.0666667, 
__ 2, 2, 0.55, 
__ -0.5, 2, 0.55, 
__ -0.5, 2, 1, 
__ -0.5, -0.5, 0.55, 
__ dp = 0.5 , 2.5, inside=1
__ 2 , 2 , 0, 0.666667, 0.0666667, 
__ -0.5, 2, 0.55, 
__ -0.5, 2, 1, 
__ -0.5, -0.5, 0.55, 
__ 2, 2, 0.55, 
__ dp = -0.584687 , -0.436092, inside=1
__ 2 , 3 , 0, 0.666667, 0.0666667, 
__ -0.5, 2, 1, 
__ -0.5, -0.5, 0.55, 
__ 2, 2, 0.55, 
__ -0.5, 2, 0.55, 
__ dp = -0.483333 , 0.45, inside=0
__ 3 , 0 , 0, 0.666667, 0.0666667, 
__ -0.5, -0.5, 0.55, 
__ 2, -0.5, 1, 
__ -0.5, 2, 1, 
__ -0.5, -0.5, 1, 
__ dp = -0.933333 , -0.45, inside=1
__ 3 , 1 , 0, 0.666667, 0.0666667, 
__ 2, -0.5, 1, 
__ -0.5, 2, 1, 
__ -0.5, -0.5, 1, 
__ -0.5, -0.5, 0.55, 
__ dp = 0.5 , 2.5, inside=1
__ 3 , 2 , 0, 0.666667, 0.0666667, 
__ -0.5, 2, 1, 
__ -0.5, -0.5, 1, 
__ -0.5, -0.5, 0.55, 
__ 2, -0.5, 1, 
__ dp = -1.16667 , -2.5, inside=1
__ 3 , 3 , 0, 0.666667, 0.0666667, 
__ -0.5, -0.5, 1, 
__ -0.5, -0.5, 0.55, 
__ 2, -0.5, 1, 
__ -0.5, 2, 1, 
__ dp = -0.759124 , 0.436092, inside=0
__ 4 , 0 , 0, 0.666667, 0.0666667, 
__ 2, 2, 0.55, 
__ -0.5, 2, 1, 
__ 2, -0.5, 1, 
__ 2, 2, 1, 
__ dp = -0.933333 , -0.45, inside=1
__ 4 , 1 , 0, 0.666667, 0.0666667, 
__ -0.5, 2, 1, 
__ 2, -0.5, 1, 
__ 2, 2, 1, 
__ 2, 2, 0.55, 
__ dp = 2 , 2.5, inside=1
__ 4 , 2 , 0, 0.666667, 0.0666667, 
__ 2, -0.5, 1, 
__ 2, 2, 1, 
__ 2, 2, 0.55, 
__ -0.5, 2, 1, 
__ dp = -1.33333 , -2.5, inside=1
__ 4 , 3 , 0, 0.666667, 0.0666667, 
__ 2, 2, 1, 
__ 2, 2, 0.55, 
__ -0.5, 2, 1, 
__ 2, -0.5, 1, 
__ dp = -1.04985 , 0.436092, inside=0
inside = 0
nijso, considering vertex  = 6
__ 0 , 0 , 0, 1, 0.1, 
__ -0.5, -0.5, 0.55, 
__ 2, -0.5, 0.55, 
__ 2, 2, 0.55, 
__ 2, -0.5, 1, 
__ dp = -2 , -2.5, inside=1
__ 0 , 1 , 0, 1, 0.1, 
__ 2, -0.5, 0.55, 
__ 2, 2, 0.55, 
__ 2, -0.5, 1, 
__ -0.5, -0.5, 0.55, 
__ dp = 0.261655 , 0.436092, inside=1
__ 0 , 2 , 0, 1, 0.1, 
__ 2, 2, 0.55, 
__ 2, -0.5, 1, 
__ -0.5, -0.5, 0.55, 
__ 2, -0.5, 0.55, 
__ dp = -1.5 , -2.5, inside=1
__ 0 , 3 , 0, 1, 0.1, 
__ 2, -0.5, 1, 
__ -0.5, -0.5, 0.55, 
__ 2, -0.5, 0.55, 
__ 2, 2, 0.55, 
__ dp = -0.45 , 0.45, inside=0
__ 1 , 0 , 0, 1, 0.1, 
__ -0.5, -0.5, 0.55, 
__ 2, 2, 0.55, 
__ -0.5, 2, 1, 
__ 2, -0.5, 1, 
__ dp = -0.959403 , -0.872185, inside=1
__ 1 , 1 , 0, 1, 0.1, 
__ 2, 2, 0.55, 
__ -0.5, 2, 1, 
__ 2, -0.5, 1, 
__ -0.5, -0.5, 0.55, 
__ dp = 0.784966 , 0.872185, inside=1
__ 1 , 2 , 0, 1, 0.1, 
__ -0.5, 2, 1, 
__ 2, -0.5, 1, 
__ -0.5, -0.5, 0.55, 
__ 2, 2, 0.55, 
__ dp = 0.261655 , -0.872185, inside=0
__ 1 , 3 , 0, 1, 0.1, 
__ 2, -0.5, 1, 
__ -0.5, -0.5, 0.55, 
__ 2, 2, 0.55, 
__ -0.5, 2, 1, 
__ dp = -0.610529 , 0.872185, inside=0
__ 2 , 0 , 0, 1, 0.1, 
__ -0.5, -0.5, 0.55, 
__ 2, 2, 0.55, 
__ -0.5, 2, 0.55, 
__ -0.5, 2, 1, 
__ dp = -1 , -2.5, inside=1
__ 2 , 1 , 0, 1, 0.1, 
__ 2, 2, 0.55, 
__ -0.5, 2, 0.55, 
__ -0.5, 2, 1, 
__ -0.5, -0.5, 0.55, 
__ dp = 0.5 , 2.5, inside=1
__ 2 , 2 , 0, 1, 0.1, 
__ -0.5, 2, 0.55, 
__ -0.5, 2, 1, 
__ -0.5, -0.5, 0.55, 
__ 2, 2, 0.55, 
__ dp = -0.610529 , -0.436092, inside=1
__ 2 , 3 , 0, 1, 0.1, 
__ -0.5, 2, 1, 
__ -0.5, -0.5, 0.55, 
__ 2, 2, 0.55, 
__ -0.5, 2, 0.55, 
__ dp = -0.45 , 0.45, inside=0
__ 3 , 0 , 0, 1, 0.1, 
__ -0.5, -0.5, 0.55, 
__ 2, -0.5, 1, 
__ -0.5, 2, 1, 
__ -0.5, -0.5, 1, 
__ dp = -0.9 , -0.45, inside=1
__ 3 , 1 , 0, 1, 0.1, 
__ 2, -0.5, 1, 
__ -0.5, 2, 1, 
__ -0.5, -0.5, 1, 
__ -0.5, -0.5, 0.55, 
__ dp = 0.5 , 2.5, inside=1
__ 3 , 2 , 0, 1, 0.1, 
__ -0.5, 2, 1, 
__ -0.5, -0.5, 1, 
__ -0.5, -0.5, 0.55, 
__ 2, -0.5, 1, 
__ dp = -1.5 , -2.5, inside=1
__ 3 , 3 , 0, 1, 0.1, 
__ -0.5, -0.5, 1, 
__ -0.5, -0.5, 0.55, 
__ 2, -0.5, 1, 
__ -0.5, 2, 1, 
__ dp = -0.784966 , 0.436092, inside=0
__ 4 , 0 , 0, 1, 0.1, 
__ 2, 2, 0.55, 
__ -0.5, 2, 1, 
__ 2, -0.5, 1, 
__ 2, 2, 1, 
__ dp = -0.9 , -0.45, inside=1
__ 4 , 1 , 0, 1, 0.1, 
__ -0.5, 2, 1, 
__ 2, -0.5, 1, 
__ 2, 2, 1, 
__ 2, 2, 0.55, 
__ dp = 2 , 2.5, inside=1
__ 4 , 2 , 0, 1, 0.1, 
__ 2, -0.5, 1, 
__ 2, 2, 1, 
__ 2, 2, 0.55, 
__ -0.5, 2, 1, 
__ dp = -1 , -2.5, inside=1
__ 4 , 3 , 0, 1, 0.1, 
__ 2, 2, 1, 
__ 2, 2, 0.55, 
__ -0.5, 2, 1, 
__ 2, -0.5, 1, 
__ dp = -0.959403 , 0.436092, inside=0
inside = 0
nijso, considering vertex  = 7
__ 0 , 0 , 0, 0.666667, 0.1, 
__ -0.5, -0.5, 0.55, 
__ 2, -0.5, 0.55, 
__ 2, 2, 0.55, 
__ 2, -0.5, 1, 
__ dp = -2 , -2.5, inside=1
__ 0 , 1 , 0, 0.666667, 0.1, 
__ 2, -0.5, 0.55, 
__ 2, 2, 0.55, 
__ 2, -0.5, 1, 
__ -0.5, -0.5, 0.55, 
__ dp = 0.319801 , 0.436092, inside=1
__ 0 , 2 , 0, 0.666667, 0.1, 
__ 2, 2, 0.55, 
__ 2, -0.5, 1, 
__ -0.5, -0.5, 0.55, 
__ 2, -0.5, 0.55, 
__ dp = -1.16667 , -2.5, inside=1
__ 0 , 3 , 0, 0.666667, 0.1, 
__ 2, -0.5, 1, 
__ -0.5, -0.5, 0.55, 
__ 2, -0.5, 0.55, 
__ 2, 2, 0.55, 
__ dp = -0.45 , 0.45, inside=0
__ 1 , 0 , 0, 0.666667, 0.1, 
__ -0.5, -0.5, 0.55, 
__ 2, 2, 0.55, 
__ -0.5, 2, 1, 
__ 2, -0.5, 1, 
__ dp = -1.01755 , -0.872185, inside=1
__ 1 , 1 , 0, 0.666667, 0.1, 
__ 2, 2, 0.55, 
__ -0.5, 2, 1, 
__ 2, -0.5, 1, 
__ -0.5, -0.5, 0.55, 
__ dp = 0.726821 , 0.872185, inside=1
__ 1 , 2 , 0, 0.666667, 0.1, 
__ -0.5, 2, 1, 
__ 2, -0.5, 1, 
__ -0.5, -0.5, 0.55, 
__ 2, 2, 0.55, 
__ dp = 0.319801 , -0.872185, inside=0
__ 1 , 3 , 0, 0.666667, 0.1, 
__ 2, -0.5, 1, 
__ -0.5, -0.5, 0.55, 
__ 2, 2, 0.55, 
__ -0.5, 2, 1, 
__ dp = -0.552384 , 0.872185, inside=0
__ 2 , 0 , 0, 0.666667, 0.1, 
__ -0.5, -0.5, 0.55, 
__ 2, 2, 0.55, 
__ -0.5, 2, 0.55, 
__ -0.5, 2, 1, 
__ dp = -1.33333 , -2.5, inside=1
__ 2 , 1 , 0, 0.666667, 0.1, 
__ 2, 2, 0.55, 
__ -0.5, 2, 0.55, 
__ -0.5, 2, 1, 
__ -0.5, -0.5, 0.55, 
__ dp = 0.5 , 2.5, inside=1
__ 2 , 2 , 0, 0.666667, 0.1, 
__ -0.5, 2, 0.55, 
__ -0.5, 2, 1, 
__ -0.5, -0.5, 0.55, 
__ 2, 2, 0.55, 
__ dp = -0.552384 , -0.436092, inside=1
__ 2 , 3 , 0, 0.666667, 0.1, 
__ -0.5, 2, 1, 
__ -0.5, -0.5, 0.55, 
__ 2, 2, 0.55, 
__ -0.5, 2, 0.55, 
__ dp = -0.45 , 0.45, inside=0
__ 3 , 0 , 0, 0.666667, 0.1, 
__ -0.5, -0.5, 0.55, 
__ 2, -0.5, 1, 
__ -0.5, 2, 1, 
__ -0.5, -0.5, 1, 
__ dp = -0.9 , -0.45, inside=1
__ 3 , 1 , 0, 0.666667, 0.1, 
__ 2, -0.5, 1, 
__ -0.5, 2, 1, 
__ -0.5, -0.5, 1, 
__ -0.5, -0.5, 0.55, 
__ dp = 0.5 , 2.5, inside=1
__ 3 , 2 , 0, 0.666667, 0.1, 
__ -0.5, 2, 1, 
__ -0.5, -0.5, 1, 
__ -0.5, -0.5, 0.55, 
__ 2, -0.5, 1, 
__ dp = -1.16667 , -2.5, inside=1
__ 3 , 3 , 0, 0.666667, 0.1, 
__ -0.5, -0.5, 1, 
__ -0.5, -0.5, 0.55, 
__ 2, -0.5, 1, 
__ -0.5, 2, 1, 
__ dp = -0.726821 , 0.436092, inside=0
__ 4 , 0 , 0, 0.666667, 0.1, 
__ 2, 2, 0.55, 
__ -0.5, 2, 1, 
__ 2, -0.5, 1, 
__ 2, 2, 1, 
__ dp = -0.9 , -0.45, inside=1
__ 4 , 1 , 0, 0.666667, 0.1, 
__ -0.5, 2, 1, 
__ 2, -0.5, 1, 
__ 2, 2, 1, 
__ 2, 2, 0.55, 
__ dp = 2 , 2.5, inside=1
__ 4 , 2 , 0, 0.666667, 0.1, 
__ 2, -0.5, 1, 
__ 2, 2, 1, 
__ 2, 2, 0.55, 
__ -0.5, 2, 1, 
__ dp = -1.33333 , -2.5, inside=1
__ 4 , 3 , 0, 0.666667, 0.1, 
__ 2, 2, 1, 
__ 2, 2, 0.55, 
__ -0.5, 2, 1, 
__ 2, -0.5, 1, 
__ dp = -1.01755 , 0.436092, inside=0
inside = 0
nijso, considering vertex  = 8
__ 0 , 0 , 0, 0.333333, 0.0333333, 
__ -0.5, -0.5, 0.55, 
__ 2, -0.5, 0.55, 
__ 2, 2, 0.55, 
__ 2, -0.5, 1, 
__ dp = -2 , -2.5, inside=1
__ 0 , 1 , 0, 0.333333, 0.0333333, 
__ 2, -0.5, 0.55, 
__ 2, 2, 0.55, 
__ 2, -0.5, 1, 
__ -0.5, -0.5, 0.55, 
__ dp = 0.442553 , 0.436092, inside=1
__ 0 , 2 , 0, 0.333333, 0.0333333, 
__ 2, 2, 0.55, 
__ 2, -0.5, 1, 
__ -0.5, -0.5, 0.55, 
__ 2, -0.5, 0.55, 
__ dp = -0.833333 , -2.5, inside=1
__ 0 , 3 , 0, 0.333333, 0.0333333, 
__ 2, -0.5, 1, 
__ -0.5, -0.5, 0.55, 
__ 2, -0.5, 0.55, 
__ 2, 2, 0.55, 
__ dp = -0.516667 , 0.45, inside=0
__ 1 , 0 , 0, 0.333333, 0.0333333, 
__ -0.5, -0.5, 0.55, 
__ 2, 2, 0.55, 
__ -0.5, 2, 1, 
__ 2, -0.5, 1, 
__ dp = -1.1403 , -0.872185, inside=1
__ 1 , 1 , 0, 0.333333, 0.0333333, 
__ 2, 2, 0.55, 
__ -0.5, 2, 1, 
__ 2, -0.5, 1, 
__ -0.5, -0.5, 0.55, 
__ dp = 0.733281 , 0.872185, inside=1
__ 1 , 2 , 0, 0.333333, 0.0333333, 
__ -0.5, 2, 1, 
__ 2, -0.5, 1, 
__ -0.5, -0.5, 0.55, 
__ 2, 2, 0.55, 
__ dp = 0.442553 , -0.872185, inside=0
__ 1 , 3 , 0, 0.333333, 0.0333333, 
__ 2, -0.5, 1, 
__ -0.5, -0.5, 0.55, 
__ 2, 2, 0.55, 
__ -0.5, 2, 1, 
__ dp = -0.558844 , 0.872185, inside=0
__ 2 , 0 , 0, 0.333333, 0.0333333, 
__ -0.5, -0.5, 0.55, 
__ 2, 2, 0.55, 
__ -0.5, 2, 0.55, 
__ -0.5, 2, 1, 
__ dp = -1.66667 , -2.5, inside=1
__ 2 , 1 , 0, 0.333333, 0.0333333, 
__ 2, 2, 0.55, 
__ -0.5, 2, 0.55, 
__ -0.5, 2, 1, 
__ -0.5, -0.5, 0.55, 
__ dp = 0.5 , 2.5, inside=1
__ 2 , 2 , 0, 0.333333, 0.0333333, 
__ -0.5, 2, 0.55, 
__ -0.5, 2, 1, 
__ -0.5, -0.5, 0.55, 
__ 2, 2, 0.55, 
__ dp = -0.558844 , -0.436092, inside=1
__ 2 , 3 , 0, 0.333333, 0.0333333, 
__ -0.5, 2, 1, 
__ -0.5, -0.5, 0.55, 
__ 2, 2, 0.55, 
__ -0.5, 2, 0.55, 
__ dp = -0.516667 , 0.45, inside=0
__ 3 , 0 , 0, 0.333333, 0.0333333, 
__ -0.5, -0.5, 0.55, 
__ 2, -0.5, 1, 
__ -0.5, 2, 1, 
__ -0.5, -0.5, 1, 
__ dp = -0.966667 , -0.45, inside=1
__ 3 , 1 , 0, 0.333333, 0.0333333, 
__ 2, -0.5, 1, 
__ -0.5, 2, 1, 
__ -0.5, -0.5, 1, 
__ -0.5, -0.5, 0.55, 
__ dp = 0.5 , 2.5, inside=1
__ 3 , 2 , 0, 0.333333, 0.0333333, 
__ -0.5, 2, 1, 
__ -0.5, -0.5, 1, 
__ -0.5, -0.5, 0.55, 
__ 2, -0.5, 1, 
__ dp = -0.833333 , -2.5, inside=1
__ 3 , 3 , 0, 0.333333, 0.0333333, 
__ -0.5, -0.5, 1, 
__ -0.5, -0.5, 0.55, 
__ 2, -0.5, 1, 
__ -0.5, 2, 1, 
__ dp = -0.733281 , 0.436092, inside=0
__ 4 , 0 , 0, 0.333333, 0.0333333, 
__ 2, 2, 0.55, 
__ -0.5, 2, 1, 
__ 2, -0.5, 1, 
__ 2, 2, 1, 
__ dp = -0.966667 , -0.45, inside=1
__ 4 , 1 , 0, 0.333333, 0.0333333, 
__ -0.5, 2, 1, 
__ 2, -0.5, 1, 
__ 2, 2, 1, 
__ 2, 2, 0.55, 
__ dp = 2 , 2.5, inside=1
__ 4 , 2 , 0, 0.333333, 0.0333333, 
__ 2, -0.5, 1, 
__ 2, 2, 1, 
__ 2, 2, 0.55, 
__ -0.5, 2, 1, 
__ dp = -1.66667 , -2.5, inside=1
__ 4 , 3 , 0, 0.333333, 0.0333333, 
__ 2, 2, 1, 
__ 2, 2, 0.55, 
__ -0.5, 2, 1, 
__ 2, -0.5, 1, 
__ dp = -1.1403 , 0.436092, inside=0
inside = 0
nijso, considering vertex  = 9
__ 0 , 0 , 0, 0.333333, 0, 
__ -0.5, -0.5, 0.55, 
__ 2, -0.5, 0.55, 
__ 2, 2, 0.55, 
__ 2, -0.5, 1, 
__ dp = -2 , -2.5, inside=1
__ 0 , 1 , 0, 0.333333, 0, 
__ 2, -0.5, 0.55, 
__ 2, 2, 0.55, 
__ 2, -0.5, 1, 
__ -0.5, -0.5, 0.55, 
__ dp = 0.474856 , 0.436092, inside=1
__ 0 , 2 , 0, 0.333333, 0, 
__ 2, 2, 0.55, 
__ 2, -0.5, 1, 
__ -0.5, -0.5, 0.55, 
__ 2, -0.5, 0.55, 
__ dp = -0.833333 , -2.5, inside=1
__ 0 , 3 , 0, 0.333333, 0, 
__ 2, -0.5, 1, 
__ -0.5, -0.5, 0.55, 
__ 2, -0.5, 0.55, 
__ 2, 2, 0.55, 
__ dp = -0.55 , 0.45, inside=0
__ 1 , 0 , 0, 0.333333, 0, 
__ -0.5, -0.5, 0.55, 
__ 2, 2, 0.55, 
__ -0.5, 2, 1, 
__ 2, -0.5, 1, 
__ dp = -1.1726 , -0.872185, inside=1
__ 1 , 1 , 0, 0.333333, 0, 
__ 2, 2, 0.55, 
__ -0.5, 2, 1, 
__ 2, -0.5, 1, 
__ -0.5, -0.5, 0.55, 
__ dp = 0.765584 , 0.872185, inside=1
__ 1 , 2 , 0, 0.333333, 0, 
__ -0.5, 2, 1, 
__ 2, -0.5, 1, 
__ -0.5, -0.5, 0.55, 
__ 2, 2, 0.55, 
__ dp = 0.474856 , -0.872185, inside=0
__ 1 , 3 , 0, 0.333333, 0, 
__ 2, -0.5, 1, 
__ -0.5, -0.5, 0.55, 
__ 2, 2, 0.55, 
__ -0.5, 2, 1, 
__ dp = -0.591147 , 0.872185, inside=0
__ 2 , 0 , 0, 0.333333, 0, 
__ -0.5, -0.5, 0.55, 
__ 2, 2, 0.55, 
__ -0.5, 2, 0.55, 
__ -0.5, 2, 1, 
__ dp = -1.66667 , -2.5, inside=1
__ 2 , 1 , 0, 0.333333, 0, 
__ 2, 2, 0.55, 
__ -0.5, 2, 0.55, 
__ -0.5, 2, 1, 
__ -0.5, -0.5, 0.55, 
__ dp = 0.5 , 2.5, inside=1
__ 2 , 2 , 0, 0.333333, 0, 
__ -0.5, 2, 0.55, 
__ -0.5, 2, 1, 
__ -0.5, -0.5, 0.55, 
__ 2, 2, 0.55, 
__ dp = -0.591147 , -0.436092, inside=1
__ 2 , 3 , 0, 0.333333, 0, 
__ -0.5, 2, 1, 
__ -0.5, -0.5, 0.55, 
__ 2, 2, 0.55, 
__ -0.5, 2, 0.55, 
__ dp = -0.55 , 0.45, inside=0
__ 3 , 0 , 0, 0.333333, 0, 
__ -0.5, -0.5, 0.55, 
__ 2, -0.5, 1, 
__ -0.5, 2, 1, 
__ -0.5, -0.5, 1, 
__ dp = -1 , -0.45, inside=1
__ 3 , 1 , 0, 0.333333, 0, 
__ 2, -0.5, 1, 
__ -0.5, 2, 1, 
__ -0.5, -0.5, 1, 
__ -0.5, -0.5, 0.55, 
__ dp = 0.5 , 2.5, inside=1
__ 3 , 2 , 0, 0.333333, 0, 
__ -0.5, 2, 1, 
__ -0.5, -0.5, 1, 
__ -0.5, -0.5, 0.55, 
__ 2, -0.5, 1, 
__ dp = -0.833333 , -2.5, inside=1
__ 3 , 3 , 0, 0.333333, 0, 
__ -0.5, -0.5, 1, 
__ -0.5, -0.5, 0.55, 
__ 2, -0.5, 1, 
__ -0.5, 2, 1, 
__ dp = -0.765584 , 0.436092, inside=0
__ 4 , 0 , 0, 0.333333, 0, 
__ 2, 2, 0.55, 
__ -0.5, 2, 1, 
__ 2, -0.5, 1, 
__ 2, 2, 1, 
__ dp = -1 , -0.45, inside=1
__ 4 , 1 , 0, 0.333333, 0, 
__ -0.5, 2, 1, 
__ 2, -0.5, 1, 
__ 2, 2, 1, 
__ 2, 2, 0.55, 
__ dp = 2 , 2.5, inside=1
__ 4 , 2 , 0, 0.333333, 0, 
__ 2, -0.5, 1, 
__ 2, 2, 1, 
__ 2, 2, 0.55, 
__ -0.5, 2, 1, 
__ dp = -1.66667 , -2.5, inside=1
__ 4 , 3 , 0, 0.333333, 0, 
__ 2, 2, 1, 
__ 2, 2, 0.55, 
__ -0.5, 2, 1, 
__ 2, -0.5, 1, 
__ dp = -1.1726 , 0.436092, inside=0
inside = 0
nijso, considering vertex  = 10
__ 0 , 0 , 0, 0.333333, 0.0666667, 
__ -0.5, -0.5, 0.55, 
__ 2, -0.5, 0.55, 
__ 2, 2, 0.55, 
__ 2, -0.5, 1, 
__ dp = -2 , -2.5, inside=1
__ 0 , 1 , 0, 0.333333, 0.0666667, 
__ 2, -0.5, 0.55, 
__ 2, 2, 0.55, 
__ 2, -0.5, 1, 
__ -0.5, -0.5, 0.55, 
__ dp = 0.41025 , 0.436092, inside=1
__ 0 , 2 , 0, 0.333333, 0.0666667, 
__ 2, 2, 0.55, 
__ 2, -0.5, 1, 
__ -0.5, -0.5, 0.55, 
__ 2, -0.5, 0.55, 
__ dp = -0.833333 , -2.5, inside=1
__ 0 , 3 , 0, 0.333333, 0.0666667, 
__ 2, -0.5, 1, 
__ -0.5, -0.5, 0.55, 
__ 2, -0.5, 0.55, 
__ 2, 2, 0.55, 
__ dp = -0.483333 , 0.45, inside=0
__ 1 , 0 , 0, 0.333333, 0.0666667, 
__ -0.5, -0.5, 0.55, 
__ 2, 2, 0.55, 
__ -0.5, 2, 1, 
__ 2, -0.5, 1, 
__ dp = -1.108 , -0.872185, inside=1
__ 1 , 1 , 0, 0.333333, 0.0666667, 
__ 2, 2, 0.55, 
__ -0.5, 2, 1, 
__ 2, -0.5, 1, 
__ -0.5, -0.5, 0.55, 
__ dp = 0.700978 , 0.872185, inside=1
__ 1 , 2 , 0, 0.333333, 0.0666667, 
__ -0.5, 2, 1, 
__ 2, -0.5, 1, 
__ -0.5, -0.5, 0.55, 
__ 2, 2, 0.55, 
__ dp = 0.41025 , -0.872185, inside=0
__ 1 , 3 , 0, 0.333333, 0.0666667, 
[...]
__ 2, 2, 0.55, 
__ dp = 1.33333 , 2.5, inside=1
__ 4 , 2 , 0.666667, 0.333333, 0.1, 
__ 2, -0.5, 1, 
__ 2, 2, 1, 
__ 2, 2, 0.55, 
__ -0.5, 2, 1, 
__ dp = -1.66667 , -2.5, inside=1
__ 4 , 3 , 0.666667, 0.333333, 0.1, 
__ 2, 2, 1, 
__ 2, 2, 0.55, 
__ -0.5, 2, 1, 
__ 2, -0.5, 1, 
__ dp = -0.959403 , 0.436092, inside=0
inside = 0
nijso, considering vertex  = 25
__ 0 , 0 , 0.666667, 0, 0.1, 
__ -0.5, -0.5, 0.55, 
__ 2, -0.5, 0.55, 
__ 2, 2, 0.55, 
__ 2, -0.5, 1, 
__ dp = -1.33333 , -2.5, inside=1
__ 0 , 1 , 0.666667, 0, 0.1, 
__ 2, -0.5, 0.55, 
__ 2, 2, 0.55, 
__ 2, -0.5, 1, 
__ -0.5, -0.5, 0.55, 
__ dp = 0.552384 , 0.436092, inside=1
__ 0 , 2 , 0.666667, 0, 0.1, 
__ 2, 2, 0.55, 
__ 2, -0.5, 1, 
__ -0.5, -0.5, 0.55, 
__ 2, -0.5, 0.55, 
__ dp = -0.5 , -2.5, inside=1
__ 0 , 3 , 0.666667, 0, 0.1, 
__ 2, -0.5, 1, 
__ -0.5, -0.5, 0.55, 
__ 2, -0.5, 0.55, 
__ 2, 2, 0.55, 
__ dp = -0.45 , 0.45, inside=0
__ 1 , 0 , 0.666667, 0, 0.1, 
__ -0.5, -0.5, 0.55, 
__ 2, 2, 0.55, 
__ -0.5, 2, 1, 
__ 2, -0.5, 1, 
__ dp = -1.01755 , -0.872185, inside=1
__ 1 , 1 , 0.666667, 0, 0.1, 
__ 2, 2, 0.55, 
__ -0.5, 2, 1, 
__ 2, -0.5, 1, 
__ -0.5, -0.5, 0.55, 
__ dp = 0.726821 , 0.872185, inside=1
__ 1 , 2 , 0.666667, 0, 0.1, 
__ -0.5, 2, 1, 
__ 2, -0.5, 1, 
__ -0.5, -0.5, 0.55, 
__ 2, 2, 0.55, 
__ dp = 0.552384 , -0.872185, inside=0
__ 1 , 3 , 0.666667, 0, 0.1, 
__ 2, -0.5, 1, 
__ -0.5, -0.5, 0.55, 
__ 2, 2, 0.55, 
__ -0.5, 2, 1, 
__ dp = -0.319801 , 0.872185, inside=0
__ 2 , 0 , 0.666667, 0, 0.1, 
__ -0.5, -0.5, 0.55, 
__ 2, 2, 0.55, 
__ -0.5, 2, 0.55, 
__ -0.5, 2, 1, 
__ dp = -2 , -2.5, inside=1
__ 2 , 1 , 0.666667, 0, 0.1, 
__ 2, 2, 0.55, 
__ -0.5, 2, 0.55, 
__ -0.5, 2, 1, 
__ -0.5, -0.5, 0.55, 
__ dp = 1.16667 , 2.5, inside=1
__ 2 , 2 , 0.666667, 0, 0.1, 
__ -0.5, 2, 0.55, 
__ -0.5, 2, 1, 
__ -0.5, -0.5, 0.55, 
__ 2, 2, 0.55, 
__ dp = -0.319801 , -0.436092, inside=1
__ 2 , 3 , 0.666667, 0, 0.1, 
__ -0.5, 2, 1, 
__ -0.5, -0.5, 0.55, 
__ 2, 2, 0.55, 
__ -0.5, 2, 0.55, 
__ dp = -0.45 , 0.45, inside=0
__ 3 , 0 , 0.666667, 0, 0.1, 
__ -0.5, -0.5, 0.55, 
__ 2, -0.5, 1, 
__ -0.5, 2, 1, 
__ -0.5, -0.5, 1, 
__ dp = -0.9 , -0.45, inside=1
__ 3 , 1 , 0.666667, 0, 0.1, 
__ 2, -0.5, 1, 
__ -0.5, 2, 1, 
__ -0.5, -0.5, 1, 
__ -0.5, -0.5, 0.55, 
__ dp = 1.16667 , 2.5, inside=1
__ 3 , 2 , 0.666667, 0, 0.1, 
__ -0.5, 2, 1, 
__ -0.5, -0.5, 1, 
__ -0.5, -0.5, 0.55, 
__ 2, -0.5, 1, 
__ dp = -0.5 , -2.5, inside=1
__ 3 , 3 , 0.666667, 0, 0.1, 
__ -0.5, -0.5, 1, 
__ -0.5, -0.5, 0.55, 
__ 2, -0.5, 1, 
__ -0.5, 2, 1, 
__ dp = -0.726821 , 0.436092, inside=0
__ 4 , 0 , 0.666667, 0, 0.1, 
__ 2, 2, 0.55, 
__ -0.5, 2, 1, 
__ 2, -0.5, 1, 
__ 2, 2, 1, 
__ dp = -0.9 , -0.45, inside=1
__ 4 , 1 , 0.666667, 0, 0.1, 
__ -0.5, 2, 1, 
__ 2, -0.5, 1, 
__ 2, 2, 1, 
__ 2, 2, 0.55, 
__ dp = 1.33333 , 2.5, inside=1
__ 4 , 2 , 0.666667, 0, 0.1, 
__ 2, -0.5, 1, 
__ 2, 2, 1, 
__ 2, 2, 0.55, 
__ -0.5, 2, 1, 
__ dp = -2 , -2.5, inside=1
__ 4 , 3 , 0.666667, 0, 0.1, 
__ 2, 2, 1, 
__ 2, 2, 0.55, 
__ -0.5, 2, 1, 
__ 2, -0.5, 1, 
__ dp = -1.01755 , 0.436092, inside=0
inside = 0
nijso, considering vertex  = 26
__ 0 , 0 , 0.666667, 0.666667, 0.1, 
__ -0.5, -0.5, 0.55, 
__ 2, -0.5, 0.55, 
__ 2, 2, 0.55, 
__ 2, -0.5, 1, 
__ dp = -1.33333 , -2.5, inside=1
__ 0 , 1 , 0.666667, 0.666667, 0.1, 
__ 2, -0.5, 0.55, 
__ 2, 2, 0.55, 
__ 2, -0.5, 1, 
__ -0.5, -0.5, 0.55, 
__ dp = 0.436092 , 0.436092, inside=1
__ 0 , 2 , 0.666667, 0.666667, 0.1, 
__ 2, 2, 0.55, 
__ 2, -0.5, 1, 
__ -0.5, -0.5, 0.55, 
__ 2, -0.5, 0.55, 
__ dp = -1.16667 , -2.5, inside=1
__ 0 , 3 , 0.666667, 0.666667, 0.1, 
__ 2, -0.5, 1, 
__ -0.5, -0.5, 0.55, 
__ 2, -0.5, 0.55, 
__ 2, 2, 0.55, 
__ dp = -0.45 , 0.45, inside=0
__ 1 , 0 , 0.666667, 0.666667, 0.1, 
__ -0.5, -0.5, 0.55, 
__ 2, 2, 0.55, 
__ -0.5, 2, 1, 
__ 2, -0.5, 1, 
__ dp = -0.901258 , -0.872185, inside=1
__ 1 , 1 , 0.666667, 0.666667, 0.1, 
__ 2, 2, 0.55, 
__ -0.5, 2, 1, 
__ 2, -0.5, 1, 
__ -0.5, -0.5, 0.55, 
__ dp = 0.843112 , 0.872185, inside=1
__ 1 , 2 , 0.666667, 0.666667, 0.1, 
__ -0.5, 2, 1, 
__ 2, -0.5, 1, 
__ -0.5, -0.5, 0.55, 
__ 2, 2, 0.55, 
__ dp = 0.436092 , -0.872185, inside=0
__ 1 , 3 , 0.666667, 0.666667, 0.1, 
__ 2, -0.5, 1, 
__ -0.5, -0.5, 0.55, 
__ 2, 2, 0.55, 
__ -0.5, 2, 1, 
__ dp = -0.436092 , 0.872185, inside=0
__ 2 , 0 , 0.666667, 0.666667, 0.1, 
__ -0.5, -0.5, 0.55, 
__ 2, 2, 0.55, 
__ -0.5, 2, 0.55, 
__ -0.5, 2, 1, 
__ dp = -1.33333 , -2.5, inside=1
__ 2 , 1 , 0.666667, 0.666667, 0.1, 
__ 2, 2, 0.55, 
__ -0.5, 2, 0.55, 
__ -0.5, 2, 1, 
__ -0.5, -0.5, 0.55, 
__ dp = 1.16667 , 2.5, inside=1
__ 2 , 2 , 0.666667, 0.666667, 0.1, 
__ -0.5, 2, 0.55, 
__ -0.5, 2, 1, 
__ -0.5, -0.5, 0.55, 
__ 2, 2, 0.55, 
__ dp = -0.436092 , -0.436092, inside=1
__ 2 , 3 , 0.666667, 0.666667, 0.1, 
__ -0.5, 2, 1, 
__ -0.5, -0.5, 0.55, 
__ 2, 2, 0.55, 
__ -0.5, 2, 0.55, 
__ dp = -0.45 , 0.45, inside=0
__ 3 , 0 , 0.666667, 0.666667, 0.1, 
__ -0.5, -0.5, 0.55, 
__ 2, -0.5, 1, 
__ -0.5, 2, 1, 
__ -0.5, -0.5, 1, 
__ dp = -0.9 , -0.45, inside=1
__ 3 , 1 , 0.666667, 0.666667, 0.1, 
__ 2, -0.5, 1, 
__ -0.5, 2, 1, 
__ -0.5, -0.5, 1, 
__ -0.5, -0.5, 0.55, 
__ dp = 1.16667 , 2.5, inside=1
__ 3 , 2 , 0.666667, 0.666667, 0.1, 
__ -0.5, 2, 1, 
__ -0.5, -0.5, 1, 
__ -0.5, -0.5, 0.55, 
__ 2, -0.5, 1, 
__ dp = -1.16667 , -2.5, inside=1
__ 3 , 3 , 0.666667, 0.666667, 0.1, 
__ -0.5, -0.5, 1, 
__ -0.5, -0.5, 0.55, 
__ 2, -0.5, 1, 
__ -0.5, 2, 1, 
__ dp = -0.843112 , 0.436092, inside=0
__ 4 , 0 , 0.666667, 0.666667, 0.1, 
__ 2, 2, 0.55, 
__ -0.5, 2, 1, 
__ 2, -0.5, 1, 
__ 2, 2, 1, 
__ dp = -0.9 , -0.45, inside=1
__ 4 , 1 , 0.666667, 0.666667, 0.1, 
__ -0.5, 2, 1, 
__ 2, -0.5, 1, 
__ 2, 2, 1, 
__ 2, 2, 0.55, 
__ dp = 1.33333 , 2.5, inside=1
__ 4 , 2 , 0.666667, 0.666667, 0.1, 
__ 2, -0.5, 1, 
__ 2, 2, 1, 
__ 2, 2, 0.55, 
__ -0.5, 2, 1, 
__ dp = -1.33333 , -2.5, inside=1
__ 4 , 3 , 0.666667, 0.666667, 0.1, 
__ 2, 2, 1, 
__ 2, 2, 0.55, 
__ -0.5, 2, 1, 
__ 2, -0.5, 1, 
__ dp = -0.901258 , 0.436092, inside=0
inside = 0
nijso, considering vertex  = 27
__ 0 , 0 , 0.666667, 1, 0.1, 
__ -0.5, -0.5, 0.55, 
__ 2, -0.5, 0.55, 
__ 2, 2, 0.55, 
__ 2, -0.5, 1, 
__ dp = -1.33333 , -2.5, inside=1
__ 0 , 1 , 0.666667, 1, 0.1, 
__ 2, -0.5, 0.55, 
__ 2, 2, 0.55, 
__ 2, -0.5, 1, 
__ -0.5, -0.5, 0.55, 
__ dp = 0.377947 , 0.436092, inside=1
__ 0 , 2 , 0.666667, 1, 0.1, 
__ 2, 2, 0.55, 
__ 2, -0.5, 1, 
__ -0.5, -0.5, 0.55, 
__ 2, -0.5, 0.55, 
__ dp = -1.5 , -2.5, inside=1
__ 0 , 3 , 0.666667, 1, 0.1, 
__ 2, -0.5, 1, 
__ -0.5, -0.5, 0.55, 
__ 2, -0.5, 0.55, 
__ 2, 2, 0.55, 
__ dp = -0.45 , 0.45, inside=0
__ 1 , 0 , 0.666667, 1, 0.1, 
__ -0.5, -0.5, 0.55, 
__ 2, 2, 0.55, 
__ -0.5, 2, 1, 
__ 2, -0.5, 1, 
__ dp = -0.843112 , -0.872185, inside=1
__ 1 , 1 , 0.666667, 1, 0.1, 
__ 2, 2, 0.55, 
__ -0.5, 2, 1, 
__ 2, -0.5, 1, 
__ -0.5, -0.5, 0.55, 
__ dp = 0.901258 , 0.872185, inside=1
__ 1 , 2 , 0.666667, 1, 0.1, 
__ -0.5, 2, 1, 
__ 2, -0.5, 1, 
__ -0.5, -0.5, 0.55, 
__ 2, 2, 0.55, 
__ dp = 0.377947 , -0.872185, inside=0
__ 1 , 3 , 0.666667, 1, 0.1, 
__ 2, -0.5, 1, 
__ -0.5, -0.5, 0.55, 
__ 2, 2, 0.55, 
__ -0.5, 2, 1, 
__ dp = -0.494238 , 0.872185, inside=0
__ 2 , 0 , 0.666667, 1, 0.1, 
__ -0.5, -0.5, 0.55, 
__ 2, 2, 0.55, 
__ -0.5, 2, 0.55, 
__ -0.5, 2, 1, 
__ dp = -1 , -2.5, inside=1
__ 2 , 1 , 0.666667, 1, 0.1, 
__ 2, 2, 0.55, 
__ -0.5, 2, 0.55, 
__ -0.5, 2, 1, 
__ -0.5, -0.5, 0.55, 
__ dp = 1.16667 , 2.5, inside=1
__ 2 , 2 , 0.666667, 1, 0.1, 
__ -0.5, 2, 0.55, 
__ -0.5, 2, 1, 
__ -0.5, -0.5, 0.55, 
__ 2, 2, 0.55, 
__ dp = -0.494238 , -0.436092, inside=1
__ 2 , 3 , 0.666667, 1, 0.1, 
__ -0.5, 2, 1, 
__ -0.5, -0.5, 0.55, 
__ 2, 2, 0.55, 
__ -0.5, 2, 0.55, 
__ dp = -0.45 , 0.45, inside=0
__ 3 , 0 , 0.666667, 1, 0.1, 
__ -0.5, -0.5, 0.55, 
__ 2, -0.5, 1, 
__ -0.5, 2, 1, 
__ -0.5, -0.5, 1, 
__ dp = -0.9 , -0.45, inside=1
__ 3 , 1 , 0.666667, 1, 0.1, 
__ 2, -0.5, 1, 
__ -0.5, 2, 1, 
__ -0.5, -0.5, 1, 
__ -0.5, -0.5, 0.55, 
__ dp = 1.16667 , 2.5, inside=1
__ 3 , 2 , 0.666667, 1, 0.1, 
__ -0.5, 2, 1, 
__ -0.5, -0.5, 1, 
__ -0.5, -0.5, 0.55, 
__ 2, -0.5, 1, 
__ dp = -1.5 , -2.5, inside=1
__ 3 , 3 , 0.666667, 1, 0.1, 
__ -0.5, -0.5, 1, 
__ -0.5, -0.5, 0.55, 
__ 2, -0.5, 1, 
__ -0.5, 2, 1, 
__ dp = -0.901258 , 0.436092, inside=0
__ 4 , 0 , 0.666667, 1, 0.1, 
__ 2, 2, 0.55, 
__ -0.5, 2, 1, 
__ 2, -0.5, 1, 
__ 2, 2, 1, 
__ dp = -0.9 , -0.45, inside=1
__ 4 , 1 , 0.666667, 1, 0.1, 
__ -0.5, 2, 1, 
__ 2, -0.5, 1, 
__ 2, 2, 1, 
__ 2, 2, 0.55, 
__ dp = 1.33333 , 2.5, inside=1
__ 4 , 2 , 0.666667, 1, 0.1, 
__ 2, -0.5, 1, 
__ 2, 2, 1, 
__ 2, 2, 0.55, 
__ -0.5, 2, 1, 
__ dp = -1 , -2.5, inside=1
__ 4 , 3 , 0.666667, 1, 0.1, 
__ 2, 2, 1, 
__ 2, 2, 0.55, 
__ -0.5, 2, 1, 
__ 2, -0.5, 1, 
__ dp = -0.843112 , 0.436092, inside=0
inside = 0
nijso, considering vertex  = 28
__ 0 , 0 , 1, 0.333333, 0.1, 
__ -0.5, -0.5, 0.55, 
__ 2, -0.5, 0.55, 
__ 2, 2, 0.55, 
__ 2, -0.5, 1, 
__ dp = -1 , -2.5, inside=1
__ 0 , 1 , 1, 0.333333, 0.1, 
__ 2, -0.5, 0.55, 
__ 2, 2, 0.55, 
__ 2, -0.5, 1, 
__ -0.5, -0.5, 0.55, 
__ dp = 0.552384 , 0.436092, inside=1
__ 0 , 2 , 1, 0.333333, 0.1, 
__ 2, 2, 0.55, 
__ 2, -0.5, 1, 
__ -0.5, -0.5, 0.55, 
__ 2, -0.5, 0.55, 
__ dp = -0.833333 , -2.5, inside=1
__ 0 , 3 , 1, 0.333333, 0.1, 
__ 2, -0.5, 1, 
__ -0.5, -0.5, 0.55, 
__ 2, -0.5, 0.55, 
__ 2, 2, 0.55, 
__ dp = -0.45 , 0.45, inside=0
__ 1 , 0 , 1, 0.333333, 0.1, 
__ -0.5, -0.5, 0.55, 
__ 2, 2, 0.55, 
__ -0.5, 2, 1, 
__ 2, -0.5, 1, 
__ dp = -0.901258 , -0.872185, inside=1
__ 1 , 1 , 1, 0.333333, 0.1, 
__ 2, 2, 0.55, 
__ -0.5, 2, 1, 
__ 2, -0.5, 1, 
__ -0.5, -0.5, 0.55, 
__ dp = 0.843112 , 0.872185, inside=1
__ 1 , 2 , 1, 0.333333, 0.1, 
__ -0.5, 2, 1, 
__ 2, -0.5, 1, 
__ -0.5, -0.5, 0.55, 
__ 2, 2, 0.55, 
__ dp = 0.552384 , -0.872185, inside=0
__ 1 , 3 , 1, 0.333333, 0.1, 
__ 2, -0.5, 1, 
__ -0.5, -0.5, 0.55, 
__ 2, 2, 0.55, 
__ -0.5, 2, 1, 
__ dp = -0.319801 , 0.872185, inside=0
__ 2 , 0 , 1, 0.333333, 0.1, 
__ -0.5, -0.5, 0.55, 
__ 2, 2, 0.55, 
__ -0.5, 2, 0.55, 
__ -0.5, 2, 1, 
__ dp = -1.66667 , -2.5, inside=1
__ 2 , 1 , 1, 0.333333, 0.1, 
__ 2, 2, 0.55, 
__ -0.5, 2, 0.55, 
__ -0.5, 2, 1, 
__ -0.5, -0.5, 0.55, 
__ dp = 1.5 , 2.5, inside=1
__ 2 , 2 , 1, 0.333333, 0.1, 
__ -0.5, 2, 0.55, 
__ -0.5, 2, 1, 
__ -0.5, -0.5, 0.55, 
__ 2, 2, 0.55, 
__ dp = -0.319801 , -0.436092, inside=1
__ 2 , 3 , 1, 0.333333, 0.1, 
__ -0.5, 2, 1, 
__ -0.5, -0.5, 0.55, 
__ 2, 2, 0.55, 
__ -0.5, 2, 0.55, 
__ dp = -0.45 , 0.45, inside=0
__ 3 , 0 , 1, 0.333333, 0.1, 
__ -0.5, -0.5, 0.55, 
__ 2, -0.5, 1, 
__ -0.5, 2, 1, 
__ -0.5, -0.5, 1, 
__ dp = -0.9 , -0.45, inside=1
__ 3 , 1 , 1, 0.333333, 0.1, 
__ 2, -0.5, 1, 
__ -0.5, 2, 1, 
__ -0.5, -0.5, 1, 
__ -0.5, -0.5, 0.55, 
__ dp = 1.5 , 2.5, inside=1
__ 3 , 2 , 1, 0.333333, 0.1, 
__ -0.5, 2, 1, 
__ -0.5, -0.5, 1, 
__ -0.5, -0.5, 0.55, 
__ 2, -0.5, 1, 
__ dp = -0.833333 , -2.5, inside=1
__ 3 , 3 , 1, 0.333333, 0.1, 
__ -0.5, -0.5, 1, 
__ -0.5, -0.5, 0.55, 
__ 2, -0.5, 1, 
__ -0.5, 2, 1, 
__ dp = -0.843112 , 0.436092, inside=0
__ 4 , 0 , 1, 0.333333, 0.1, 
__ 2, 2, 0.55, 
__ -0.5, 2, 1, 
__ 2, -0.5, 1, 
__ 2, 2, 1, 
__ dp = -0.9 , -0.45, inside=1
__ 4 , 1 , 1, 0.333333, 0.1, 
__ -0.5, 2, 1, 
__ 2, -0.5, 1, 
__ 2, 2, 1, 
__ 2, 2, 0.55, 
__ dp = 1 , 2.5, inside=1
__ 4 , 2 , 1, 0.333333, 0.1, 
__ 2, -0.5, 1, 
__ 2, 2, 1, 
__ 2, 2, 0.55, 
__ -0.5, 2, 1, 
__ dp = -1.66667 , -2.5, inside=1
__ 4 , 3 , 1, 0.333333, 0.1, 
__ 2, 2, 1, 
__ 2, 2, 0.55, 
__ -0.5, 2, 1, 
__ 2, -0.5, 1, 
__ dp = -0.901258 , 0.436092, inside=0
inside = 0
nijso, considering vertex  = 29
__ 0 , 0 , 1, 0, 0.1, 
__ -0.5, -0.5, 0.55, 
__ 2, -0.5, 0.55, 
__ 2, 2, 0.55, 
__ 2, -0.5, 1, 
__ dp = -1 , -2.5, inside=1
__ 0 , 1 , 1, 0, 0.1, 
__ 2, -0.5, 0.55, 
__ 2, 2, 0.55, 
__ 2, -0.5, 1, 
__ -0.5, -0.5, 0.55, 
__ dp = 0.610529 , 0.436092, inside=1
__ 0 , 2 , 1, 0, 0.1, 
__ 2, 2, 0.55, 
__ 2, -0.5, 1, 
__ -0.5, -0.5, 0.55, 
__ 2, -0.5, 0.55, 
__ dp = -0.5 , -2.5, inside=1
__ 0 , 3 , 1, 0, 0.1, 
__ 2, -0.5, 1, 
__ -0.5, -0.5, 0.55, 
__ 2, -0.5, 0.55, 
__ 2, 2, 0.55, 
__ dp = -0.45 , 0.45, inside=0
__ 1 , 0 , 1, 0, 0.1, 
__ -0.5, -0.5, 0.55, 
__ 2, 2, 0.55, 
__ -0.5, 2, 1, 
__ 2, -0.5, 1, 
__ dp = -0.959403 , -0.872185, inside=1
__ 1 , 1 , 1, 0, 0.1, 
__ 2, 2, 0.55, 
__ -0.5, 2, 1, 
__ 2, -0.5, 1, 
__ -0.5, -0.5, 0.55, 
__ dp = 0.784966 , 0.872185, inside=1
__ 1 , 2 , 1, 0, 0.1, 
__ -0.5, 2, 1, 
__ 2, -0.5, 1, 
__ -0.5, -0.5, 0.55, 
__ 2, 2, 0.55, 
__ dp = 0.610529 , -0.872185, inside=0
__ 1 , 3 , 1, 0, 0.1, 
__ 2, -0.5, 1, 
__ -0.5, -0.5, 0.55, 
__ 2, 2, 0.55, 
__ -0.5, 2, 1, 
__ dp = -0.261655 , 0.872185, inside=0
__ 2 , 0 , 1, 0, 0.1, 
__ -0.5, -0.5, 0.55, 
__ 2, 2, 0.55, 
__ -0.5, 2, 0.55, 
__ -0.5, 2, 1, 
__ dp = -2 , -2.5, inside=1
__ 2 , 1 , 1, 0, 0.1, 
__ 2, 2, 0.55, 
__ -0.5, 2, 0.55, 
__ -0.5, 2, 1, 
__ -0.5, -0.5, 0.55, 
__ dp = 1.5 , 2.5, inside=1
__ 2 , 2 , 1, 0, 0.1, 
__ -0.5, 2, 0.55, 
__ -0.5, 2, 1, 
__ -0.5, -0.5, 0.55, 
__ 2, 2, 0.55, 
__ dp = -0.261655 , -0.436092, inside=1
__ 2 , 3 , 1, 0, 0.1, 
__ -0.5, 2, 1, 
__ -0.5, -0.5, 0.55, 
__ 2, 2, 0.55, 
__ -0.5, 2, 0.55, 
__ dp = -0.45 , 0.45, inside=0
__ 3 , 0 , 1, 0, 0.1, 
__ -0.5, -0.5, 0.55, 
__ 2, -0.5, 1, 
__ -0.5, 2, 1, 
__ -0.5, -0.5, 1, 
__ dp = -0.9 , -0.45, inside=1
__ 3 , 1 , 1, 0, 0.1, 
__ 2, -0.5, 1, 
__ -0.5, 2, 1, 
__ -0.5, -0.5, 1, 
__ -0.5, -0.5, 0.55, 
__ dp = 1.5 , 2.5, inside=1
__ 3 , 2 , 1, 0, 0.1, 
__ -0.5, 2, 1, 
__ -0.5, -0.5, 1, 
__ -0.5, -0.5, 0.55, 
__ 2, -0.5, 1, 
__ dp = -0.5 , -2.5, inside=1
__ 3 , 3 , 1, 0, 0.1, 
__ -0.5, -0.5, 1, 
__ -0.5, -0.5, 0.55, 
__ 2, -0.5, 1, 
__ -0.5, 2, 1, 
__ dp = -0.784966 , 0.436092, inside=0
__ 4 , 0 , 1, 0, 0.1, 
__ 2, 2, 0.55, 
__ -0.5, 2, 1, 
__ 2, -0.5, 1, 
__ 2, 2, 1, 
__ dp = -0.9 , -0.45, inside=1
__ 4 , 1 , 1, 0, 0.1, 
__ -0.5, 2, 1, 
__ 2, -0.5, 1, 
__ 2, 2, 1, 
__ 2, 2, 0.55, 
__ dp = 1 , 2.5, inside=1
__ 4 , 2 , 1, 0, 0.1, 
__ 2, -0.5, 1, 
__ 2, 2, 1, 
__ 2, 2, 0.55, 
__ -0.5, 2, 1, 
__ dp = -2 , -2.5, inside=1
__ 4 , 3 , 1, 0, 0.1, 
__ 2, 2, 1, 
__ 2, 2, 0.55, 
__ -0.5, 2, 1, 
__ 2, -0.5, 1, 
__ dp = -0.959403 , 0.436092, inside=0
inside = 0
nijso, considering vertex  = 30
__ 0 , 0 , 1, 0.666667, 0.1, 
__ -0.5, -0.5, 0.55, 
__ 2, -0.5, 0.55, 
__ 2, 2, 0.55, 
__ 2, -0.5, 1, 
__ dp = -1 , -2.5, inside=1
__ 0 , 1 , 1, 0.666667, 0.1, 
__ 2, -0.5, 0.55, 
__ 2, 2, 0.55, 
__ 2, -0.5, 1, 
__ -0.5, -0.5, 0.55, 
__ dp = 0.494238 , 0.436092, inside=1
__ 0 , 2 , 1, 0.666667, 0.1, 
__ 2, 2, 0.55, 
__ 2, -0.5, 1, 
__ -0.5, -0.5, 0.55, 
__ 2, -0.5, 0.55, 
__ dp = -1.16667 , -2.5, inside=1
__ 0 , 3 , 1, 0.666667, 0.1, 
__ 2, -0.5, 1, 
__ -0.5, -0.5, 0.55, 
__ 2, -0.5, 0.55, 
__ 2, 2, 0.55, 
__ dp = -0.45 , 0.45, inside=0
__ 1 , 0 , 1, 0.666667, 0.1, 
__ -0.5, -0.5, 0.55, 
__ 2, 2, 0.55, 
__ -0.5, 2, 1, 
__ 2, -0.5, 1, 
__ dp = -0.843112 , -0.872185, inside=1
__ 1 , 1 , 1, 0.666667, 0.1, 
__ 2, 2, 0.55, 
__ -0.5, 2, 1, 
__ 2, -0.5, 1, 
__ -0.5, -0.5, 0.55, 
__ dp = 0.901258 , 0.872185, inside=1
__ 1 , 2 , 1, 0.666667, 0.1, 
__ -0.5, 2, 1, 
__ 2, -0.5, 1, 
__ -0.5, -0.5, 0.55, 
__ 2, 2, 0.55, 
__ dp = 0.494238 , -0.872185, inside=0
__ 1 , 3 , 1, 0.666667, 0.1, 
__ 2, -0.5, 1, 
__ -0.5, -0.5, 0.55, 
__ 2, 2, 0.55, 
__ -0.5, 2, 1, 
__ dp = -0.377947 , 0.872185, inside=0
__ 2 , 0 , 1, 0.666667, 0.1, 
__ -0.5, -0.5, 0.55, 
__ 2, 2, 0.55, 
__ -0.5, 2, 0.55, 
__ -0.5, 2, 1, 
__ dp = -1.33333 , -2.5, inside=1
__ 2 , 1 , 1, 0.666667, 0.1, 
__ 2, 2, 0.55, 
__ -0.5, 2, 0.55, 
__ -0.5, 2, 1, 
__ -0.5, -0.5, 0.55, 
__ dp = 1.5 , 2.5, inside=1
__ 2 , 2 , 1, 0.666667, 0.1, 
__ -0.5, 2, 0.55, 
__ -0.5, 2, 1, 
__ -0.5, -0.5, 0.55, 
__ 2, 2, 0.55, 
__ dp = -0.377947 , -0.436092, inside=1
__ 2 , 3 , 1, 0.666667, 0.1, 
__ -0.5, 2, 1, 
__ -0.5, -0.5, 0.55, 
__ 2, 2, 0.55, 
__ -0.5, 2, 0.55, 
__ dp = -0.45 , 0.45, inside=0
__ 3 , 0 , 1, 0.666667, 0.1, 
__ -0.5, -0.5, 0.55, 
__ 2, -0.5, 1, 
__ -0.5, 2, 1, 
__ -0.5, -0.5, 1, 
__ dp = -0.9 , -0.45, inside=1
__ 3 , 1 , 1, 0.666667, 0.1, 
__ 2, -0.5, 1, 
__ -0.5, 2, 1, 
__ -0.5, -0.5, 1, 
__ -0.5, -0.5, 0.55, 
__ dp = 1.5 , 2.5, inside=1
__ 3 , 2 , 1, 0.666667, 0.1, 
__ -0.5, 2, 1, 
__ -0.5, -0.5, 1, 
__ -0.5, -0.5, 0.55, 
__ 2, -0.5, 1, 
__ dp = -1.16667 , -2.5, inside=1
__ 3 , 3 , 1, 0.666667, 0.1, 
__ -0.5, -0.5, 1, 
__ -0.5, -0.5, 0.55, 
__ 2, -0.5, 1, 
__ -0.5, 2, 1, 
__ dp = -0.901258 , 0.436092, inside=0
__ 4 , 0 , 1, 0.666667, 0.1, 
__ 2, 2, 0.55, 
__ -0.5, 2, 1, 
__ 2, -0.5, 1, 
__ 2, 2, 1, 
__ dp = -0.9 , -0.45, inside=1
__ 4 , 1 , 1, 0.666667, 0.1, 
__ -0.5, 2, 1, 
__ 2, -0.5, 1, 
__ 2, 2, 1, 
__ 2, 2, 0.55, 
__ dp = 1 , 2.5, inside=1
__ 4 , 2 , 1, 0.666667, 0.1, 
__ 2, -0.5, 1, 
__ 2, 2, 1, 
__ 2, 2, 0.55, 
__ -0.5, 2, 1, 
__ dp = -1.33333 , -2.5, inside=1
__ 4 , 3 , 1, 0.666667, 0.1, 
__ 2, 2, 1, 
__ 2, 2, 0.55, 
__ -0.5, 2, 1, 
__ 2, -0.5, 1, 
__ dp = -0.843112 , 0.436092, inside=0
inside = 0
nijso, considering vertex  = 31
__ 0 , 0 , 1, 1, 0.1, 
__ -0.5, -0.5, 0.55, 
__ 2, -0.5, 0.55, 
__ 2, 2, 0.55, 
__ 2, -0.5, 1, 
__ dp = -1 , -2.5, inside=1
__ 0 , 1 , 1, 1, 0.1, 
__ 2, -0.5, 0.55, 
__ 2, 2, 0.55, 
__ 2, -0.5, 1, 
__ -0.5, -0.5, 0.55, 
__ dp = 0.436092 , 0.436092, inside=1
__ 0 , 2 , 1, 1, 0.1, 
__ 2, 2, 0.55, 
__ 2, -0.5, 1, 
__ -0.5, -0.5, 0.55, 
__ 2, -0.5, 0.55, 
__ dp = -1.5 , -2.5, inside=1
__ 0 , 3 , 1, 1, 0.1, 
__ 2, -0.5, 1, 
__ -0.5, -0.5, 0.55, 
__ 2, -0.5, 0.55, 
__ 2, 2, 0.55, 
__ dp = -0.45 , 0.45, inside=0
__ 1 , 0 , 1, 1, 0.1, 
__ -0.5, -0.5, 0.55, 
__ 2, 2, 0.55, 
__ -0.5, 2, 1, 
__ 2, -0.5, 1, 
__ dp = -0.784966 , -0.872185, inside=1
__ 1 , 1 , 1, 1, 0.1, 
__ 2, 2, 0.55, 
__ -0.5, 2, 1, 
__ 2, -0.5, 1, 
__ -0.5, -0.5, 0.55, 
__ dp = 0.959403 , 0.872185, inside=1
__ 1 , 2 , 1, 1, 0.1, 
__ -0.5, 2, 1, 
__ 2, -0.5, 1, 
__ -0.5, -0.5, 0.55, 
__ 2, 2, 0.55, 
__ dp = 0.436092 , -0.872185, inside=0
__ 1 , 3 , 1, 1, 0.1, 
__ 2, -0.5, 1, 
__ -0.5, -0.5, 0.55, 
__ 2, 2, 0.55, 
__ -0.5, 2, 1, 
__ dp = -0.436092 , 0.872185, inside=0
__ 2 , 0 , 1, 1, 0.1, 
__ -0.5, -0.5, 0.55, 
__ 2, 2, 0.55, 
__ -0.5, 2, 0.55, 
__ -0.5, 2, 1, 
__ dp = -1 , -2.5, inside=1
__ 2 , 1 , 1, 1, 0.1, 
__ 2, 2, 0.55, 
__ -0.5, 2, 0.55, 
__ -0.5, 2, 1, 
__ -0.5, -0.5, 0.55, 
__ dp = 1.5 , 2.5, inside=1
__ 2 , 2 , 1, 1, 0.1, 
__ -0.5, 2, 0.55, 
__ -0.5, 2, 1, 
__ -0.5, -0.5, 0.55, 
__ 2, 2, 0.55, 
__ dp = -0.436092 , -0.436092, inside=1
__ 2 , 3 , 1, 1, 0.1, 
__ -0.5, 2, 1, 
__ -0.5, -0.5, 0.55, 
__ 2, 2, 0.55, 
__ -0.5, 2, 0.55, 
__ dp = -0.45 , 0.45, inside=0
__ 3 , 0 , 1, 1, 0.1, 
__ -0.5, -0.5, 0.55, 
__ 2, -0.5, 1, 
__ -0.5, 2, 1, 
__ -0.5, -0.5, 1, 
__ dp = -0.9 , -0.45, inside=1
__ 3 , 1 , 1, 1, 0.1, 
__ 2, -0.5, 1, 
__ -0.5, 2, 1, 
__ -0.5, -0.5, 1, 
__ -0.5, -0.5, 0.55, 
__ dp = 1.5 , 2.5, inside=1
__ 3 , 2 , 1, 1, 0.1, 
__ -0.5, 2, 1, 
__ -0.5, -0.5, 1, 
__ -0.5, -0.5, 0.55, 
__ 2, -0.5, 1, 
__ dp = -1.5 , -2.5, inside=1
__ 3 , 3 , 1, 1, 0.1, 
__ -0.5, -0.5, 1, 
__ -0.5, -0.5, 0.55, 
__ 2, -0.5, 1, 
__ -0.5, 2, 1, 
__ dp = -0.959403 , 0.436092, inside=0
__ 4 , 0 , 1, 1, 0.1, 
__ 2, 2, 0.55, 
__ -0.5, 2, 1, 
__ 2, -0.5, 1, 
__ 2, 2, 1, 
__ dp = -0.9 , -0.45, inside=1
__ 4 , 1 , 1, 1, 0.1, 
__ -0.5, 2, 1, 
__ 2, -0.5, 1, 
__ 2, 2, 1, 
__ 2, 2, 0.55, 
__ dp = 1 , 2.5, inside=1
__ 4 , 2 , 1, 1, 0.1, 
__ 2, -0.5, 1, 
__ 2, 2, 1, 
__ 2, 2, 0.55, 
__ -0.5, 2, 1, 
__ dp = -1 , -2.5, inside=1
__ 4 , 3 , 1, 1, 0.1, 
__ 2, 2, 1, 
__ 2, 2, 0.55, 
__ -0.5, 2, 1, 
__ 2, -0.5, 1, 
__ dp = -0.784966 , 0.436092, inside=0
inside = 0
Compute parametric coord      | FFD box: BOX. Max Diff: 0.
Writing a Paraview file of the FFD boxes.
No surface deformation (setting FFD).

----------------------- Write deformed grid files -----------------------
|SU2 mesh                           |mesh_out.su2                       |
|Paraview Multiblock                |cube.vtm                           |
Adding any FFD information to the SU2 file.

------------------------- Solver Postprocessing -------------------------
Deleted CGeometry container.
Deleted CSurfaceMovement class.
Deleted CVolumetricMovement class.
Deleted CConfig container.
Deleted COutput class.

Completed in 0.096951 seconds on 1 core.

------------------------- Exit Success (SU2_DEF) ------------------------

